  0
SECTION
  2
ENTITIES
999
DXF created from EnergyPlus
999
Program Version,EnergyPlus, Version 9.2.0-921312fa1d, YMD=2023.02.13 16:52
999
Polygon Action,ThickPolyline
999
Color Scheme,Default
999
Text - True North
  0
TEXT
  8
1
  6
Continuous
 62
  3
 10
      -11.00000
 20
        3.00000
 30
        0.10000
 40
 .25
  1
True North
 41
 0.0
  7
MONOTXT
210
0.0
220
0.0
230
1.0
999
Text - Building Title
  0
TEXT
  8
1
  6
Continuous
 62
  3
 10
      -14.00000
 20
       -1.00000
 30
        0.10000
 40
 .4
  1
Building - Tausendpfund
 41
 0.0
  7
MONOTXT
210
0.0
220
0.0
230
1.0
999
North Arrow Stem
  0
3DFACE
  8
1
 62
  3
 10
      -10.00000
 20
        3.00000
 30
        0.10000
 11
      -10.00000
 21
        3.00000
 31
        0.00000
 12
      -10.00000
 22
        0.00000
 32
        0.00000
 13
      -10.00000
 23
        0.00000
 33
        0.10000
999
North Arrow Head 1
  0
3DFACE
  8
1
 62
  3
 10
      -10.00000
 20
        3.00000
 30
        0.10000
 11
      -10.00000
 21
        3.00000
 31
        0.00000
 12
      -10.50000
 22
        2.13397
 32
        0.00000
 13
      -10.50000
 23
        2.13397
 33
        0.10000
999
North Arrow Head 2
  0
3DFACE
  8
1
 62
  3
 10
      -10.00000
 20
        3.00000
 30
        0.10000
 11
      -10.00000
 21
        3.00000
 31
        0.00000
 12
       -9.50000
 22
        2.13397
 32
        0.00000
 13
       -9.50000
 23
        2.13397
 33
        0.10000
999
North Arrow Side 1
  0
3DFACE
  8
1
 62
  3
 10
      -10.50000
 20
        4.50000
 30
        0.10000
 11
      -10.50000
 21
        4.50000
 31
        0.00000
 12
      -10.50000
 22
        3.50000
 32
        0.00000
 13
      -10.50000
 23
        3.50000
 33
        0.10000
999
North Arrow Side 2
  0
3DFACE
  8
1
 62
  3
 10
      -10.50000
 20
        4.50000
 30
        0.10000
 11
      -10.50000
 21
        4.50000
 31
        0.00000
 12
       -9.50000
 22
        3.50000
 32
        0.00000
 13
       -9.50000
 23
        3.50000
 33
        0.10000
999
North Arrow Side 3
  0
3DFACE
  8
1
 62
  3
 10
       -9.50000
 20
        4.50000
 30
        0.10000
 11
       -9.50000
 21
        4.50000
 31
        0.00000
 12
       -9.50000
 22
        3.50000
 32
        0.00000
 13
       -9.50000
 23
        3.50000
 33
        0.10000
999
Zone Names
999
Zone=1:OFFICE-0-0
999
Zone=2:OFFICE-0-1
999
Zone=3:OFFICE-0-2
999
Zone=4:OFFICE-0-3
999
Zone=5:TOILET-0-0
999
Zone=6:STAIRS-0-0
999
Zone=7:SERVICE-0-0
999
Zone=8:CORRIDOR-0-0
999
OFFICE-0-0:OFFICE-0-0.0.WEST.WALLEXTERNAL
  0
3DFACE
  8
OFFICE-0-0
 62
 43
 10
        0.00000
 20
       12.75000
 30
        0.00000
 11
        0.00000
 21
        0.00000
 31
        0.00000
 12
        0.00000
 22
        0.00000
 32
        3.25000
 13
        0.00000
 23
       12.75000
 33
        3.25000
999
OFFICE-0-0:OFFICE-0-0.0.WEST.WALLEXTERNAL.0.WINDOW
  0
3DFACE
  8
OFFICE-0-0
 62
143
 10
        0.00000
 20
       12.55000
 30
        0.60000
 11
        0.00000
 21
       11.55000
 31
        0.60000
 12
        0.00000
 22
       11.55000
 32
        2.40000
 13
        0.00000
 23
       12.55000
 33
        2.40000
999
OFFICE-0-0:OFFICE-0-0.0.WEST.WALLEXTERNAL.1.WINDOW
  0
3DFACE
  8
OFFICE-0-0
 62
143
 10
        0.00000
 20
        9.95000
 30
        0.01000
 11
        0.00000
 21
        6.35000
 31
        0.01000
 12
        0.00000
 22
        6.35000
 32
        2.40000
 13
        0.00000
 23
        9.95000
 33
        2.40000
999
OFFICE-0-0:OFFICE-0-0.0.WEST.WALLEXTERNAL.2.WINDOW
  0
3DFACE
  8
OFFICE-0-0
 62
143
 10
        0.00000
 20
        4.75000
 30
        0.60000
 11
        0.00000
 21
        3.75000
 31
        0.60000
 12
        0.00000
 22
        3.75000
 32
        2.40000
 13
        0.00000
 23
        4.75000
 33
        2.40000
999
OFFICE-0-0:OFFICE-0-0.0.WEST.WALLEXTERNAL.3.WINDOW
  0
3DFACE
  8
OFFICE-0-0
 62
143
 10
        0.00000
 20
        2.15000
 30
        0.01000
 11
        0.00000
 21
        1.15000
 31
        0.01000
 12
        0.00000
 22
        1.15000
 32
        2.40000
 13
        0.00000
 23
        2.15000
 33
        2.40000
999
OFFICE-0-0:OFFICE-0-0.1.SOUTH.WALLEXTERNAL
  0
3DFACE
  8
OFFICE-0-0
 62
 43
 10
        0.00000
 20
        0.00000
 30
        0.00000
 11
        6.00000
 21
        0.00000
 31
        0.00000
 12
        6.00000
 22
        0.00000
 32
        3.25000
 13
        0.00000
 23
        0.00000
 33
        3.25000
999
OFFICE-0-0:OFFICE-0-0.1.SOUTH.WALLEXTERNAL.0.WINDOW
  0
3DFACE
  8
OFFICE-0-0
 62
143
 10
        1.55000
 20
        0.00000
 30
        0.60000
 11
        2.55000
 21
        0.00000
 31
        0.60000
 12
        2.55000
 22
        0.00000
 32
        2.40000
 13
        1.55000
 23
        0.00000
 33
        2.40000
999
OFFICE-0-0:OFFICE-0-0.1.SOUTH.WALLEXTERNAL.1.WINDOW
  0
3DFACE
  8
OFFICE-0-0
 62
143
 10
        4.15000
 20
        0.00000
 30
        0.60000
 11
        5.15000
 21
        0.00000
 31
        0.60000
 12
        5.15000
 22
        0.00000
 32
        2.40000
 13
        4.15000
 23
        0.00000
 33
        2.40000
999
OFFICE-0-0:OFFICE-0-0.2.EAST.INTERNALWALL
  0
3DFACE
  8
OFFICE-0-0
 62
 43
 10
        6.00000
 20
        0.00000
 30
        0.00000
 11
        6.00000
 21
       12.75000
 31
        0.00000
 12
        6.00000
 22
       12.75000
 32
        3.25000
 13
        6.00000
 23
        0.00000
 33
        3.25000
999
OFFICE-0-0:OFFICE-0-0.3.NORTH.INTERNALWALL
  0
3DFACE
  8
OFFICE-0-0
 62
 43
 10
        6.00000
 20
       12.75000
 30
        0.00000
 11
        0.00000
 21
       12.75000
 31
        0.00000
 12
        0.00000
 22
       12.75000
 32
        3.25000
 13
        6.00000
 23
       12.75000
 33
        3.25000
999
OFFICE-0-0:OFFICE-0-0.0.FLOORGROUND
  0
3DFACE
  8
OFFICE-0-0
 62
  8
 10
        0.00000
 20
        0.00000
 30
        0.00000
 11
        0.00000
 21
       12.75000
 31
        0.00000
 12
        6.00000
 22
       12.75000
 32
        0.00000
 13
        6.00000
 23
        0.00000
 33
        0.00000
999
OFFICE-0-0:OFFICE-0-0.1.CEILING
  0
3DFACE
  8
OFFICE-0-0
 62
 15
 10
        0.00000
 20
        0.00000
 30
        3.25000
 11
        6.00000
 21
        0.00000
 31
        3.25000
 12
        6.00000
 22
       12.75000
 32
        3.25000
 13
        0.00000
 23
       12.75000
 33
        3.25000
999
OFFICE-0-1:OFFICE-0-1.0.WEST.WALLEXTERNAL
  0
3DFACE
  8
OFFICE-0-1
 62
 43
 10
        0.00000
 20
       26.70000
 30
        0.00000
 11
        0.00000
 21
       15.75000
 31
        0.00000
 12
        0.00000
 22
       15.75000
 32
        3.25000
 13
        0.00000
 23
       26.70000
 33
        3.25000
999
OFFICE-0-1:OFFICE-0-1.0.WEST.WALLEXTERNAL.0.WINDOW
  0
3DFACE
  8
OFFICE-0-1
 62
143
 10
        0.00000
 20
       25.55000
 30
        0.60000
 11
        0.00000
 21
       24.55000
 31
        0.60000
 12
        0.00000
 22
       24.55000
 32
        2.40000
 13
        0.00000
 23
       25.55000
 33
        2.40000
999
OFFICE-0-1:OFFICE-0-1.0.WEST.WALLEXTERNAL.1.WINDOW
  0
3DFACE
  8
OFFICE-0-1
 62
143
 10
        0.00000
 20
       22.95000
 30
        0.60000
 11
        0.00000
 21
       21.95000
 31
        0.60000
 12
        0.00000
 22
       21.95000
 32
        2.40000
 13
        0.00000
 23
       22.95000
 33
        2.40000
999
OFFICE-0-1:OFFICE-0-1.0.WEST.WALLEXTERNAL.2.WINDOW
  0
3DFACE
  8
OFFICE-0-1
 62
143
 10
        0.00000
 20
       20.35000
 30
        0.60000
 11
        0.00000
 21
       19.35000
 31
        0.60000
 12
        0.00000
 22
       19.35000
 32
        2.40000
 13
        0.00000
 23
       20.35000
 33
        2.40000
999
OFFICE-0-1:OFFICE-0-1.0.WEST.WALLEXTERNAL.3.WINDOW
  0
3DFACE
  8
OFFICE-0-1
 62
143
 10
        0.00000
 20
       17.75000
 30
        0.01000
 11
        0.00000
 21
       16.75000
 31
        0.01000
 12
        0.00000
 22
       16.75000
 32
        2.40000
 13
        0.00000
 23
       17.75000
 33
        2.40000
999
OFFICE-0-1:OFFICE-0-1.WALLEXTERNAL.3.NORTH
  0
3DFACE
  8
OFFICE-0-1
 62
 43
 10
        6.00000
 20
       26.70000
 30
        0.00000
 11
        0.00000
 21
       26.70000
 31
        0.00000
 12
        0.00000
 22
       26.70000
 32
        3.25000
 13
        6.00000
 23
       26.70000
 33
        3.25000
999
OFFICE-0-1:OFFICE-0-1.WALLEXTERNAL.3.NORTH.0.WINDOW
  0
3DFACE
  8
OFFICE-0-1
 62
143
 10
        5.15000
 20
       26.70000
 30
        0.60000
 11
        4.15000
 21
       26.70000
 31
        0.60000
 12
        4.15000
 22
       26.70000
 32
        2.40000
 13
        5.15000
 23
       26.70000
 33
        2.40000
999
OFFICE-0-1:OFFICE-0-1.WALLEXTERNAL.3.NORTH.1.WINDOW
  0
3DFACE
  8
OFFICE-0-1
 62
143
 10
        2.55000
 20
       26.70000
 30
        0.60000
 11
        1.55000
 21
       26.70000
 31
        0.60000
 12
        1.55000
 22
       26.70000
 32
        2.40000
 13
        2.55000
 23
       26.70000
 33
        2.40000
999
OFFICE-0-1:OFFICE-0-1.WALLINTERNAL.1.SOUTH
  0
3DFACE
  8
OFFICE-0-1
 62
 43
 10
        0.00000
 20
       15.75000
 30
        0.00000
 11
        6.00000
 21
       15.75000
 31
        0.00000
 12
        6.00000
 22
       15.75000
 32
        3.25000
 13
        0.00000
 23
       15.75000
 33
        3.25000
999
OFFICE-0-1:OFFICE-0-1.WALLINTERNAL.2.EAST
  0
3DFACE
  8
OFFICE-0-1
 62
 43
 10
        6.00000
 20
       15.75000
 30
        0.00000
 11
        6.00000
 21
       26.70000
 31
        0.00000
 12
        6.00000
 22
       26.70000
 32
        3.25000
 13
        6.00000
 23
       15.75000
 33
        3.25000
999
OFFICE-0-1:OFFICE-0-1.FLOORGROUND
  0
3DFACE
  8
OFFICE-0-1
 62
  8
 10
        0.00000
 20
       15.75000
 30
        0.00000
 11
        0.00000
 21
       26.70000
 31
        0.00000
 12
        6.00000
 22
       26.70000
 32
        0.00000
 13
        6.00000
 23
       15.75000
 33
        0.00000
999
OFFICE-0-1:OFFICE-0-1.CEILING
  0
3DFACE
  8
OFFICE-0-1
 62
 15
 10
        0.00000
 20
       15.75000
 30
        3.25000
 11
        6.00000
 21
       15.75000
 31
        3.25000
 12
        6.00000
 22
       26.70000
 32
        3.25000
 13
        0.00000
 23
       26.70000
 33
        3.25000
999
OFFICE-0-2:OFFICE-0-2.WALLEXTERNAL.2.EAST
  0
3DFACE
  8
OFFICE-0-2
 62
 43
 10
       14.50000
 20
       15.75000
 30
        0.00000
 11
       14.50000
 21
       26.70000
 31
        0.00000
 12
       14.50000
 22
       26.70000
 32
        3.25000
 13
       14.50000
 23
       15.75000
 33
        3.25000
999
OFFICE-0-2:OFFICE-0-2.WALLEXTERNAL.2.EAST.0.WINDOW
  0
3DFACE
  8
OFFICE-0-2
 62
143
 10
       14.50000
 20
       24.55000
 30
        0.60000
 11
       14.50000
 21
       25.55000
 31
        0.60000
 12
       14.50000
 22
       25.55000
 32
        2.40000
 13
       14.50000
 23
       24.55000
 33
        2.40000
999
OFFICE-0-2:OFFICE-0-2.WALLEXTERNAL.2.EAST.1.WINDOW
  0
3DFACE
  8
OFFICE-0-2
 62
143
 10
       14.50000
 20
       21.95000
 30
        0.60000
 11
       14.50000
 21
       22.95000
 31
        0.60000
 12
       14.50000
 22
       22.95000
 32
        2.40000
 13
       14.50000
 23
       21.95000
 33
        2.40000
999
OFFICE-0-2:OFFICE-0-2.WALLEXTERNAL.2.EAST.2.WINDOW
  0
3DFACE
  8
OFFICE-0-2
 62
143
 10
       14.50000
 20
       19.35000
 30
        0.60000
 11
       14.50000
 21
       20.35000
 31
        0.60000
 12
       14.50000
 22
       20.35000
 32
        2.40000
 13
       14.50000
 23
       19.35000
 33
        2.40000
999
OFFICE-0-2:OFFICE-0-2.WALLEXTERNAL.2.EAST.3.WINDOW
  0
3DFACE
  8
OFFICE-0-2
 62
143
 10
       14.50000
 20
       16.75000
 30
        0.01000
 11
       14.50000
 21
       17.75000
 31
        0.01000
 12
       14.50000
 22
       17.75000
 32
        2.40000
 13
       14.50000
 23
       16.75000
 33
        2.40000
999
OFFICE-0-2:OFFICE-0-2.WALLEXTERNAL.1.NORTH
  0
3DFACE
  8
OFFICE-0-2
 62
 43
 10
       14.50000
 20
       26.70000
 30
        0.00000
 11
        8.50000
 21
       26.70000
 31
        0.00000
 12
        8.50000
 22
       26.70000
 32
        3.25000
 13
       14.50000
 23
       26.70000
 33
        3.25000
999
OFFICE-0-2:OFFICE-0-2.WALLEXTERNAL.1.NORTH.0.WINDOW
  0
3DFACE
  8
OFFICE-0-2
 62
143
 10
       12.95000
 20
       26.70000
 30
        0.60000
 11
       11.95000
 21
       26.70000
 31
        0.60000
 12
       11.95000
 22
       26.70000
 32
        2.40000
 13
       12.95000
 23
       26.70000
 33
        2.40000
999
OFFICE-0-2:OFFICE-0-2.WALLEXTERNAL.1.NORTH.1.WINDOW
  0
3DFACE
  8
OFFICE-0-2
 62
143
 10
       10.35000
 20
       26.70000
 30
        0.60000
 11
        9.35000
 21
       26.70000
 31
        0.60000
 12
        9.35000
 22
       26.70000
 32
        2.40000
 13
       10.35000
 23
       26.70000
 33
        2.40000
999
OFFICE-0-2:OFFICE-0-2.WALLINTERNAL.3.SOUTH
  0
3DFACE
  8
OFFICE-0-2
 62
 43
 10
       12.00000
 20
       15.75000
 30
        0.00000
 11
       14.50000
 21
       15.75000
 31
        0.00000
 12
       14.50000
 22
       15.75000
 32
        3.25000
 13
       12.00000
 23
       15.75000
 33
        3.25000
999
OFFICE-0-2:OFFICE-0-2.WALLINTERNAL.4.SOUTH
  0
3DFACE
  8
OFFICE-0-2
 62
 43
 10
        8.50000
 20
       15.75000
 30
        0.00000
 11
       12.00000
 21
       15.75000
 31
        0.00000
 12
       12.00000
 22
       15.75000
 32
        3.25000
 13
        8.50000
 23
       15.75000
 33
        3.25000
999
OFFICE-0-2:OFFICE-0-2.WALLINTERNAL.0.WEST
  0
3DFACE
  8
OFFICE-0-2
 62
 43
 10
        8.50000
 20
       26.70000
 30
        0.00000
 11
        8.50000
 21
       15.75000
 31
        0.00000
 12
        8.50000
 22
       15.75000
 32
        3.25000
 13
        8.50000
 23
       26.70000
 33
        3.25000
999
OFFICE-0-2:OFFICE-0-2.FLOORGROUND
  0
3DFACE
  8
OFFICE-0-2
 62
  8
 10
        8.50000
 20
       15.75000
 30
        0.00000
 11
        8.50000
 21
       26.70000
 31
        0.00000
 12
       14.50000
 22
       26.70000
 32
        0.00000
 13
       14.50000
 23
       15.75000
 33
        0.00000
999
OFFICE-0-2:OFFICE-0-2.CEILING
  0
3DFACE
  8
OFFICE-0-2
 62
 15
 10
        8.50000
 20
       15.75000
 30
        3.25000
 11
       14.50000
 21
       15.75000
 31
        3.25000
 12
       14.50000
 22
       26.70000
 32
        3.25000
 13
        8.50000
 23
       26.70000
 33
        3.25000
999
OFFICE-0-3:OFFICE-0-3.WALLEXTERNAL.3.EAST
  0
3DFACE
  8
OFFICE-0-3
 62
 43
 10
       14.50000
 20
        0.00000
 30
        0.00000
 11
       14.50000
 21
       10.50000
 31
        0.00000
 12
       14.50000
 22
       10.50000
 32
        3.25000
 13
       14.50000
 23
        0.00000
 33
        3.25000
999
OFFICE-0-3:OFFICE-0-3.WALLEXTERNAL.3.EAST.0.WINDOW
  0
3DFACE
  8
OFFICE-0-3
 62
143
 10
       14.50000
 20
        8.95000
 30
        0.60000
 11
       14.50000
 21
        9.95000
 31
        0.60000
 12
       14.50000
 22
        9.95000
 32
        2.40000
 13
       14.50000
 23
        8.95000
 33
        2.40000
999
OFFICE-0-3:OFFICE-0-3.WALLEXTERNAL.3.EAST.1.WINDOW
  0
3DFACE
  8
OFFICE-0-3
 62
143
 10
       14.50000
 20
        6.35000
 30
        0.60000
 11
       14.50000
 21
        7.35000
 31
        0.60000
 12
       14.50000
 22
        7.35000
 32
        2.40000
 13
       14.50000
 23
        6.35000
 33
        2.40000
999
OFFICE-0-3:OFFICE-0-3.WALLEXTERNAL.3.EAST.2.WINDOW
  0
3DFACE
  8
OFFICE-0-3
 62
143
 10
       14.50000
 20
        3.75000
 30
        0.60000
 11
       14.50000
 21
        4.75000
 31
        0.60000
 12
       14.50000
 22
        4.75000
 32
        2.40000
 13
       14.50000
 23
        3.75000
 33
        2.40000
999
OFFICE-0-3:OFFICE-0-3.WALLEXTERNAL.3.EAST.3.WINDOW
  0
3DFACE
  8
OFFICE-0-3
 62
143
 10
       14.50000
 20
        1.15000
 30
        0.01000
 11
       14.50000
 21
        2.15000
 31
        0.01000
 12
       14.50000
 22
        2.15000
 32
        2.40000
 13
       14.50000
 23
        1.15000
 33
        2.40000
999
OFFICE-0-3:OFFICE-0-3.WALLEXTERNAL.4.SOUTH
  0
3DFACE
  8
OFFICE-0-3
 62
 43
 10
        8.50000
 20
        0.00000
 30
        0.00000
 11
       14.50000
 21
        0.00000
 31
        0.00000
 12
       14.50000
 22
        0.00000
 32
        3.25000
 13
        8.50000
 23
        0.00000
 33
        3.25000
999
OFFICE-0-3:OFFICE-0-3.WALLEXTERNAL.4.SOUTH.0.WINDOW
  0
3DFACE
  8
OFFICE-0-3
 62
143
 10
       11.95000
 20
        0.00000
 30
        0.60000
 11
       12.95000
 21
        0.00000
 31
        0.60000
 12
       12.95000
 22
        0.00000
 32
        2.40000
 13
       11.95000
 23
        0.00000
 33
        2.40000
999
OFFICE-0-3:OFFICE-0-3.WALLEXTERNAL.4.SOUTH.1.WINDOW
  0
3DFACE
  8
OFFICE-0-3
 62
143
 10
        9.35000
 20
        0.00000
 30
        0.60000
 11
       10.35000
 21
        0.00000
 31
        0.60000
 12
       10.35000
 22
        0.00000
 32
        2.40000
 13
        9.35000
 23
        0.00000
 33
        2.40000
999
OFFICE-0-3:OFFICE-0-3.WALLINTERNAL.2.NORTH
  0
3DFACE
  8
OFFICE-0-3
 62
 43
 10
       14.50000
 20
       10.50000
 30
        0.00000
 11
       12.00000
 21
       10.50000
 31
        0.00000
 12
       12.00000
 22
       10.50000
 32
        3.25000
 13
       14.50000
 23
       10.50000
 33
        3.25000
999
OFFICE-0-3:OFFICE-0-3.WALLINTERNAL.1.NORTH
  0
3DFACE
  8
OFFICE-0-3
 62
 43
 10
       12.00000
 20
       10.50000
 30
        0.00000
 11
        8.50000
 21
       10.50000
 31
        0.00000
 12
        8.50000
 22
       10.50000
 32
        3.25000
 13
       12.00000
 23
       10.50000
 33
        3.25000
999
OFFICE-0-3:OFFICE-0-3.WALLINTERNAL.0.WEST
  0
3DFACE
  8
OFFICE-0-3
 62
 43
 10
        8.50000
 20
       10.50000
 30
        0.00000
 11
        8.50000
 21
        0.00000
 31
        0.00000
 12
        8.50000
 22
        0.00000
 32
        3.25000
 13
        8.50000
 23
       10.50000
 33
        3.25000
999
OFFICE-0-3:OFFICE-0-3.FLOORGROUND
  0
3DFACE
  8
OFFICE-0-3
 62
  8
 10
        8.50000
 20
        0.00000
 30
        0.00000
 11
        8.50000
 21
       10.50000
 31
        0.00000
 12
       14.50000
 22
       10.50000
 32
        0.00000
 13
       14.50000
 23
        0.00000
 33
        0.00000
999
OFFICE-0-3:OFFICE-0-3.CEILING
  0
3DFACE
  8
OFFICE-0-3
 62
 15
 10
        8.50000
 20
        0.00000
 30
        3.25000
 11
       14.50000
 21
        0.00000
 31
        3.25000
 12
       14.50000
 22
       10.50000
 32
        3.25000
 13
        8.50000
 23
       10.50000
 33
        3.25000
999
TOILET-0-0:TOILET-0-0.WALLINTERNAL.0.WEST
  0
3DFACE
  8
TOILET-0-0
 62
 43
 10
        8.50000
 20
       15.75000
 30
        0.00000
 11
        8.50000
 21
       10.50000
 31
        0.00000
 12
        8.50000
 22
       10.50000
 32
        3.25000
 13
        8.50000
 23
       15.75000
 33
        3.25000
999
TOILET-0-0:TOILET-0-0.WALLINTERNAL.1.EAST
  0
3DFACE
  8
TOILET-0-0
 62
 43
 10
       12.00000
 20
       10.50000
 30
        0.00000
 11
       12.00000
 21
       15.75000
 31
        0.00000
 12
       12.00000
 22
       15.75000
 32
        3.25000
 13
       12.00000
 23
       10.50000
 33
        3.25000
999
TOILET-0-0:iz-OFFICE-0-2.WALLINTERNAL.4.SOUTH
  0
3DFACE
  8
TOILET-0-0
 62
 43
 10
        8.50000
 20
       15.75000
 30
        3.25000
 11
       12.00000
 21
       15.75000
 31
        3.25000
 12
       12.00000
 22
       15.75000
 32
        0.00000
 13
        8.50000
 23
       15.75000
 33
        0.00000
999
TOILET-0-0:iz-OFFICE-0-3.WALLINTERNAL.1.NORTH
  0
3DFACE
  8
TOILET-0-0
 62
 43
 10
       12.00000
 20
       10.50000
 30
        3.25000
 11
        8.50000
 21
       10.50000
 31
        3.25000
 12
        8.50000
 22
       10.50000
 32
        0.00000
 13
       12.00000
 23
       10.50000
 33
        0.00000
999
TOILET-0-0:TOILET-0-0.FLOORGROUND
  0
3DFACE
  8
TOILET-0-0
 62
  8
 10
        8.50000
 20
       10.50000
 30
        0.00000
 11
        8.50000
 21
       15.75000
 31
        0.00000
 12
       12.00000
 22
       15.75000
 32
        0.00000
 13
       12.00000
 23
       10.50000
 33
        0.00000
999
TOILET-0-0:TOILET-0-0.CEILING
  0
3DFACE
  8
TOILET-0-0
 62
 15
 10
        8.50000
 20
       10.50000
 30
        3.25000
 11
       12.00000
 21
       10.50000
 31
        3.25000
 12
       12.00000
 22
       15.75000
 32
        3.25000
 13
        8.50000
 23
       15.75000
 33
        3.25000
999
STAIRS-0-0:STAIRS-0-0.0.WEST.WALLEXTERNAL
  0
3DFACE
  8
STAIRS-0-0
 62
 43
 10
        0.00000
 20
       15.75000
 30
        0.00000
 11
        0.00000
 21
       12.75000
 31
        0.00000
 12
        0.00000
 22
       12.75000
 32
        3.25000
 13
        0.00000
 23
       15.75000
 33
        3.25000
999
STAIRS-0-0:STAIRS-0-0.0.WEST.WALLEXTERNAL.0.WINDOW
  0
3DFACE
  8
STAIRS-0-0
 62
143
 10
        0.00000
 20
       15.15000
 30
        0.60000
 11
        0.00000
 21
       14.15000
 31
        0.60000
 12
        0.00000
 22
       14.15000
 32
        2.40000
 13
        0.00000
 23
       15.15000
 33
        2.40000
999
STAIRS-0-0:STAIRS-0-0.0.EAST.WALLINTERNAL
  0
3DFACE
  8
STAIRS-0-0
 62
 43
 10
        6.00000
 20
       12.75000
 30
        0.00000
 11
        6.00000
 21
       15.75000
 31
        0.00000
 12
        6.00000
 22
       15.75000
 32
        3.25000
 13
        6.00000
 23
       12.75000
 33
        3.25000
999
STAIRS-0-0:iz-OFFICE-0-0.3.NORTH.INTERNALWALL
  0
3DFACE
  8
STAIRS-0-0
 62
 43
 10
        6.00000
 20
       12.75000
 30
        3.25000
 11
        0.00000
 21
       12.75000
 31
        3.25000
 12
        0.00000
 22
       12.75000
 32
        0.00000
 13
        6.00000
 23
       12.75000
 33
        0.00000
999
STAIRS-0-0:iz-OFFICE-0-1.WALLINTERNAL.1.SOUTH
  0
3DFACE
  8
STAIRS-0-0
 62
 43
 10
        0.00000
 20
       15.75000
 30
        3.25000
 11
        6.00000
 21
       15.75000
 31
        3.25000
 12
        6.00000
 22
       15.75000
 32
        0.00000
 13
        0.00000
 23
       15.75000
 33
        0.00000
999
STAIRS-0-0:STAIRS-0-0.FLOORGROUND
  0
3DFACE
  8
STAIRS-0-0
 62
  8
 10
        0.00000
 20
       12.75000
 30
        0.00000
 11
        0.00000
 21
       15.75000
 31
        0.00000
 12
        6.00000
 22
       15.75000
 32
        0.00000
 13
        6.00000
 23
       12.75000
 33
        0.00000
999
STAIRS-0-0:STAIRS-0-0.CEILING
  0
3DFACE
  8
STAIRS-0-0
 62
 15
 10
        0.00000
 20
       12.75000
 30
        3.25000
 11
        6.00000
 21
       12.75000
 31
        3.25000
 12
        6.00000
 22
       15.75000
 32
        3.25000
 13
        0.00000
 23
       15.75000
 33
        3.25000
999
SERVICE-0-0:SERVICE-0-0.0.EAST.WALLEXTERNAL
  0
3DFACE
  8
SERVICE-0-0
 62
 43
 10
       14.50000
 20
       10.50000
 30
        0.00000
 11
       14.50000
 21
       15.75000
 31
        0.00000
 12
       14.50000
 22
       15.75000
 32
        3.25000
 13
       14.50000
 23
       10.50000
 33
        3.25000
999
SERVICE-0-0:SERVICE-0-0.0.EAST.WALLEXTERNAL.0.WINDOW
  0
3DFACE
  8
SERVICE-0-0
 62
143
 10
       14.50000
 20
       11.55000
 30
        0.01000
 11
       14.50000
 21
       12.55000
 31
        0.01000
 12
       14.50000
 22
       12.55000
 32
        2.40000
 13
       14.50000
 23
       11.55000
 33
        2.40000
999
SERVICE-0-0:SERVICE-0-0.0.EAST.WALLEXTERNAL.1.WINDOW
  0
3DFACE
  8
SERVICE-0-0
 62
143
 10
       14.50000
 20
       14.15000
 30
        0.60000
 11
       14.50000
 21
       15.15000
 31
        0.60000
 12
       14.50000
 22
       15.15000
 32
        2.40000
 13
       14.50000
 23
       14.15000
 33
        2.40000
999
SERVICE-0-0:iz-OFFICE-0-2.WALLINTERNAL.3.SOUTH
  0
3DFACE
  8
SERVICE-0-0
 62
 43
 10
       12.00000
 20
       15.75000
 30
        3.25000
 11
       14.50000
 21
       15.75000
 31
        3.25000
 12
       14.50000
 22
       15.75000
 32
        0.00000
 13
       12.00000
 23
       15.75000
 33
        0.00000
999
SERVICE-0-0:iz-OFFICE-0-3.WALLINTERNAL.2.NORTH
  0
3DFACE
  8
SERVICE-0-0
 62
 43
 10
       14.50000
 20
       10.50000
 30
        3.25000
 11
       12.00000
 21
       10.50000
 31
        3.25000
 12
       12.00000
 22
       10.50000
 32
        0.00000
 13
       14.50000
 23
       10.50000
 33
        0.00000
999
SERVICE-0-0:iz-TOILET-0-0.WALLINTERNAL.1.EAST
  0
3DFACE
  8
SERVICE-0-0
 62
 43
 10
       12.00000
 20
       10.50000
 30
        3.25000
 11
       12.00000
 21
       15.75000
 31
        3.25000
 12
       12.00000
 22
       15.75000
 32
        0.00000
 13
       12.00000
 23
       10.50000
 33
        0.00000
999
SERVICE-0-0:SERVICE-0-0.FLOORGROUND
  0
3DFACE
  8
SERVICE-0-0
 62
  8
 10
       12.00000
 20
       10.50000
 30
        0.00000
 11
       12.00000
 21
       15.75000
 31
        0.00000
 12
       14.50000
 22
       15.75000
 32
        0.00000
 13
       14.50000
 23
       10.50000
 33
        0.00000
999
SERVICE-0-0:SERVICE-0-0.CEILING
  0
3DFACE
  8
SERVICE-0-0
 62
 15
 10
       12.00000
 20
       10.50000
 30
        3.25000
 11
       14.50000
 21
       10.50000
 31
        3.25000
 12
       14.50000
 22
       15.75000
 32
        3.25000
 13
       12.00000
 23
       15.75000
 33
        3.25000
999
CORRIDOR-0-0:CORRIDOR-0-0.0.NORTH.WALLEXTERNAL
  0
3DFACE
  8
CORRIDOR-0-0
 62
 43
 10
        8.50000
 20
       26.70000
 30
        0.00000
 11
        6.00000
 21
       26.70000
 31
        0.00000
 12
        6.00000
 22
       26.70000
 32
        3.25000
 13
        8.50000
 23
       26.70000
 33
        3.25000
999
CORRIDOR-0-0:CORRIDOR-0-0.0.NORTH.WALLEXTERNAL.0.WINDOW
  0
3DFACE
  8
CORRIDOR-0-0
 62
143
 10
        7.75000
 20
       26.70000
 30
        0.60000
 11
        6.75000
 21
       26.70000
 31
        0.60000
 12
        6.75000
 22
       26.70000
 32
        2.40000
 13
        7.75000
 23
       26.70000
 33
        2.40000
999
CORRIDOR-0-0:CORRIDOR-0-0.1.SOUTH.WALLEXTERNAL
  0
3DFACE
  8
CORRIDOR-0-0
 62
 43
 10
        6.00000
 20
        0.00000
 30
        0.00000
 11
        8.50000
 21
        0.00000
 31
        0.00000
 12
        8.50000
 22
        0.00000
 32
        3.25000
 13
        6.00000
 23
        0.00000
 33
        3.25000
999
CORRIDOR-0-0:CORRIDOR-0-0.1.SOUTH.WALLEXTERNAL.0.WINDOW
  0
3DFACE
  8
CORRIDOR-0-0
 62
143
 10
        6.75000
 20
        0.00000
 30
        0.60000
 11
        7.75000
 21
        0.00000
 31
        0.60000
 12
        7.75000
 22
        0.00000
 32
        2.40000
 13
        6.75000
 23
        0.00000
 33
        2.40000
999
CORRIDOR-0-0:iz-OFFICE-0-0.2.EAST.INTERNALWALL
  0
3DFACE
  8
CORRIDOR-0-0
 62
 43
 10
        6.00000
 20
        0.00000
 30
        3.25000
 11
        6.00000
 21
       12.75000
 31
        3.25000
 12
        6.00000
 22
       12.75000
 32
        0.00000
 13
        6.00000
 23
        0.00000
 33
        0.00000
999
CORRIDOR-0-0:iz-OFFICE-0-1.WALLINTERNAL.2.EAST
  0
3DFACE
  8
CORRIDOR-0-0
 62
 43
 10
        6.00000
 20
       15.75000
 30
        3.25000
 11
        6.00000
 21
       26.70000
 31
        3.25000
 12
        6.00000
 22
       26.70000
 32
        0.00000
 13
        6.00000
 23
       15.75000
 33
        0.00000
999
CORRIDOR-0-0:iz-OFFICE-0-2.WALLINTERNAL.0.WEST
  0
3DFACE
  8
CORRIDOR-0-0
 62
 43
 10
        8.50000
 20
       26.70000
 30
        3.25000
 11
        8.50000
 21
       15.75000
 31
        3.25000
 12
        8.50000
 22
       15.75000
 32
        0.00000
 13
        8.50000
 23
       26.70000
 33
        0.00000
999
CORRIDOR-0-0:iz-OFFICE-0-3.WALLINTERNAL.0.WEST
  0
3DFACE
  8
CORRIDOR-0-0
 62
 43
 10
        8.50000
 20
       10.50000
 30
        3.25000
 11
        8.50000
 21
        0.00000
 31
        3.25000
 12
        8.50000
 22
        0.00000
 32
        0.00000
 13
        8.50000
 23
       10.50000
 33
        0.00000
999
CORRIDOR-0-0:iz-TOILET-0-0.WALLINTERNAL.0.WEST
  0
3DFACE
  8
CORRIDOR-0-0
 62
 43
 10
        8.50000
 20
       15.75000
 30
        3.25000
 11
        8.50000
 21
       10.50000
 31
        3.25000
 12
        8.50000
 22
       10.50000
 32
        0.00000
 13
        8.50000
 23
       15.75000
 33
        0.00000
999
CORRIDOR-0-0:iz-STAIRS-0-0.0.EAST.WALLINTERNAL
  0
3DFACE
  8
CORRIDOR-0-0
 62
 43
 10
        6.00000
 20
       12.75000
 30
        3.25000
 11
        6.00000
 21
       15.75000
 31
        3.25000
 12
        6.00000
 22
       15.75000
 32
        0.00000
 13
        6.00000
 23
       12.75000
 33
        0.00000
999
CORRIDOR-0-0:CORRIDOR-0-0.FLOORGROUND
  0
3DFACE
  8
CORRIDOR-0-0
 62
  8
 10
        6.00000
 20
        0.00000
 30
        0.00000
 11
        6.00000
 21
       26.70000
 31
        0.00000
 12
        8.50000
 22
       26.70000
 32
        0.00000
 13
        8.50000
 23
        0.00000
 33
        0.00000
999
CORRIDOR-0-0:CORRIDOR-0-0.CEILING
  0
3DFACE
  8
CORRIDOR-0-0
 62
 15
 10
        6.00000
 20
        0.00000
 30
        3.25000
 11
        8.50000
 21
        0.00000
 31
        3.25000
 12
        8.50000
 22
       26.70000
 32
        3.25000
 13
        6.00000
 23
       26.70000
 33
        3.25000
  0
ENDSEC
  0
EOF
