  0
SECTION
  2
ENTITIES
999
DXF created from EnergyPlus
999
Program Version,EnergyPlus, Version 9.2.0-921312fa1d, YMD=2022.12.21 00:03
999
Polygon Action,ThickPolyline
999
Color Scheme,Default
999
Text - True North
  0
TEXT
  8
1
  6
Continuous
 62
  3
 10
      -11.00000
 20
        3.00000
 30
        0.10000
 40
 .25
  1
True North
 41
 0.0
  7
MONOTXT
210
0.0
220
0.0
230
1.0
999
Text - Building Title
  0
TEXT
  8
1
  6
Continuous
 62
  3
 10
      -14.00000
 20
       -1.00000
 30
        0.10000
 40
 .4
  1
Building - Building1
 41
 0.0
  7
MONOTXT
210
0.0
220
0.0
230
1.0
999
North Arrow Stem
  0
3DFACE
  8
1
 62
  3
 10
      -10.00000
 20
        3.00000
 30
        0.10000
 11
      -10.00000
 21
        3.00000
 31
        0.00000
 12
      -10.00000
 22
        0.00000
 32
        0.00000
 13
      -10.00000
 23
        0.00000
 33
        0.10000
999
North Arrow Head 1
  0
3DFACE
  8
1
 62
  3
 10
      -10.00000
 20
        3.00000
 30
        0.10000
 11
      -10.00000
 21
        3.00000
 31
        0.00000
 12
      -10.50000
 22
        2.13397
 32
        0.00000
 13
      -10.50000
 23
        2.13397
 33
        0.10000
999
North Arrow Head 2
  0
3DFACE
  8
1
 62
  3
 10
      -10.00000
 20
        3.00000
 30
        0.10000
 11
      -10.00000
 21
        3.00000
 31
        0.00000
 12
       -9.50000
 22
        2.13397
 32
        0.00000
 13
       -9.50000
 23
        2.13397
 33
        0.10000
999
North Arrow Side 1
  0
3DFACE
  8
1
 62
  3
 10
      -10.50000
 20
        4.50000
 30
        0.10000
 11
      -10.50000
 21
        4.50000
 31
        0.00000
 12
      -10.50000
 22
        3.50000
 32
        0.00000
 13
      -10.50000
 23
        3.50000
 33
        0.10000
999
North Arrow Side 2
  0
3DFACE
  8
1
 62
  3
 10
      -10.50000
 20
        4.50000
 30
        0.10000
 11
      -10.50000
 21
        4.50000
 31
        0.00000
 12
       -9.50000
 22
        3.50000
 32
        0.00000
 13
       -9.50000
 23
        3.50000
 33
        0.10000
999
North Arrow Side 3
  0
3DFACE
  8
1
 62
  3
 10
       -9.50000
 20
        4.50000
 30
        0.10000
 11
       -9.50000
 21
        4.50000
 31
        0.00000
 12
       -9.50000
 22
        3.50000
 32
        0.00000
 13
       -9.50000
 23
        3.50000
 33
        0.10000
999
Zone Names
999
Zone=1:OFFICE.0.0
999
Zone=2:OFFICE.1.0
999
Zone=3:OFFICE.2.0
999
OFFICE.0.0:OFFICE.0.0.WALL.0.WEST
  0
3DFACE
  8
OFFICE.0.0
 62
 43
 10
        0.00000
 20
       27.00000
 30
        0.00000
 11
        0.00000
 21
        0.00000
 31
        0.00000
 12
        0.00000
 22
        0.00000
 32
        3.10000
 13
        0.00000
 23
       27.00000
 33
        3.10000
999
OFFICE.0.0:OFFICE.0.0.WALL.0.WEST.WINDOW.0
  0
3DFACE
  8
OFFICE.0.0
 62
143
 10
        0.00000
 20
       20.89425
 30
        0.70103
 11
        0.00000
 21
        6.10575
 31
        0.70103
 12
        0.00000
 22
        6.10575
 32
        2.39897
 13
        0.00000
 23
       20.89425
 33
        2.39897
999
OFFICE.0.0:OFFICE.0.0.WALL.1.SOUTH
  0
3DFACE
  8
OFFICE.0.0
 62
 43
 10
        0.00000
 20
        0.00000
 30
        0.00000
 11
       14.70000
 21
        0.00000
 31
        0.00000
 12
       14.70000
 22
        0.00000
 32
        3.10000
 13
        0.00000
 23
        0.00000
 33
        3.10000
999
OFFICE.0.0:OFFICE.0.0.WALL.1.SOUTH.WINDOW.0
  0
3DFACE
  8
OFFICE.0.0
 62
143
 10
        3.32424
 20
        0.00000
 30
        0.70103
 11
       11.37576
 21
        0.00000
 31
        0.70103
 12
       11.37576
 22
        0.00000
 32
        2.39897
 13
        3.32424
 23
        0.00000
 33
        2.39897
999
OFFICE.0.0:OFFICE.0.0.WALL.2.EAST
  0
3DFACE
  8
OFFICE.0.0
 62
 43
 10
       14.70000
 20
        0.00000
 30
        0.00000
 11
       14.70000
 21
       27.00000
 31
        0.00000
 12
       14.70000
 22
       27.00000
 32
        3.10000
 13
       14.70000
 23
        0.00000
 33
        3.10000
999
OFFICE.0.0:OFFICE.0.0.WALL.2.EAST.WINDOW.0
  0
3DFACE
  8
OFFICE.0.0
 62
143
 10
       14.70000
 20
        6.10575
 30
        0.70103
 11
       14.70000
 21
       20.89425
 31
        0.70103
 12
       14.70000
 22
       20.89425
 32
        2.39897
 13
       14.70000
 23
        6.10575
 33
        2.39897
999
OFFICE.0.0:OFFICE.0.0.WALL.3.NORTH
  0
3DFACE
  8
OFFICE.0.0
 62
 43
 10
       14.70000
 20
       27.00000
 30
        0.00000
 11
        0.00000
 21
       27.00000
 31
        0.00000
 12
        0.00000
 22
       27.00000
 32
        3.10000
 13
       14.70000
 23
       27.00000
 33
        3.10000
999
OFFICE.0.0:OFFICE.0.0.WALL.3.NORTH.WINDOW.0
  0
3DFACE
  8
OFFICE.0.0
 62
143
 10
       11.37576
 20
       27.00000
 30
        0.70103
 11
        3.32424
 21
       27.00000
 31
        0.70103
 12
        3.32424
 22
       27.00000
 32
        2.39897
 13
       11.37576
 23
       27.00000
 33
        2.39897
999
OFFICE.0.0:OFFICE.0.0.FLOOR
  0
3DFACE
  8
OFFICE.0.0
 62
  8
 10
        0.00000
 20
       27.00000
 30
        0.00000
 11
       14.70000
 21
       27.00000
 31
        0.00000
 12
       14.70000
 22
        0.00000
 32
        0.00000
 13
        0.00000
 23
        0.00000
 33
        0.00000
999
OFFICE.0.0:iz-OFFICE.1.0.FLOOR
  0
3DFACE
  8
OFFICE.0.0
 62
 15
 10
        0.00000
 20
        0.00000
 30
        3.10000
 11
       14.70000
 21
        0.00000
 31
        3.10000
 12
       14.70000
 22
       27.00000
 32
        3.10000
 13
        0.00000
 23
       27.00000
 33
        3.10000
999
OFFICE.1.0:OFFICE.1.0.WALL.0.WEST
  0
3DFACE
  8
OFFICE.1.0
 62
 43
 10
        0.00000
 20
       27.00000
 30
        3.10000
 11
        0.00000
 21
        0.00000
 31
        3.10000
 12
        0.00000
 22
        0.00000
 32
        6.20000
 13
        0.00000
 23
       27.00000
 33
        6.20000
999
OFFICE.1.0:OFFICE.1.0.WALL.0.WEST.WINDOW.0
  0
3DFACE
  8
OFFICE.1.0
 62
143
 10
        0.00000
 20
       20.89425
 30
        3.80103
 11
        0.00000
 21
        6.10575
 31
        3.80103
 12
        0.00000
 22
        6.10575
 32
        5.49897
 13
        0.00000
 23
       20.89425
 33
        5.49897
999
OFFICE.1.0:OFFICE.1.0.WALL.1.SOUTH
  0
3DFACE
  8
OFFICE.1.0
 62
 43
 10
        0.00000
 20
        0.00000
 30
        3.10000
 11
       14.70000
 21
        0.00000
 31
        3.10000
 12
       14.70000
 22
        0.00000
 32
        6.20000
 13
        0.00000
 23
        0.00000
 33
        6.20000
999
OFFICE.1.0:OFFICE.1.0.WALL.1.SOUTH.WINDOW.0
  0
3DFACE
  8
OFFICE.1.0
 62
143
 10
        3.32424
 20
        0.00000
 30
        3.80103
 11
       11.37576
 21
        0.00000
 31
        3.80103
 12
       11.37576
 22
        0.00000
 32
        5.49897
 13
        3.32424
 23
        0.00000
 33
        5.49897
999
OFFICE.1.0:OFFICE.1.0.WALL.2.EAST
  0
3DFACE
  8
OFFICE.1.0
 62
 43
 10
       14.70000
 20
        0.00000
 30
        3.10000
 11
       14.70000
 21
       27.00000
 31
        3.10000
 12
       14.70000
 22
       27.00000
 32
        6.20000
 13
       14.70000
 23
        0.00000
 33
        6.20000
999
OFFICE.1.0:OFFICE.1.0.WALL.2.EAST.WINDOW.0
  0
3DFACE
  8
OFFICE.1.0
 62
143
 10
       14.70000
 20
        6.10575
 30
        3.80103
 11
       14.70000
 21
       20.89425
 31
        3.80103
 12
       14.70000
 22
       20.89425
 32
        5.49897
 13
       14.70000
 23
        6.10575
 33
        5.49897
999
OFFICE.1.0:OFFICE.1.0.WALL.3.NORTH
  0
3DFACE
  8
OFFICE.1.0
 62
 43
 10
       14.70000
 20
       27.00000
 30
        3.10000
 11
        0.00000
 21
       27.00000
 31
        3.10000
 12
        0.00000
 22
       27.00000
 32
        6.20000
 13
       14.70000
 23
       27.00000
 33
        6.20000
999
OFFICE.1.0:OFFICE.1.0.WALL.3.NORTH.WINDOW.0
  0
3DFACE
  8
OFFICE.1.0
 62
143
 10
       11.37576
 20
       27.00000
 30
        3.80103
 11
        3.32424
 21
       27.00000
 31
        3.80103
 12
        3.32424
 22
       27.00000
 32
        5.49897
 13
       11.37576
 23
       27.00000
 33
        5.49897
999
OFFICE.1.0:OFFICE.1.0.FLOOR
  0
3DFACE
  8
OFFICE.1.0
 62
  8
 10
        0.00000
 20
       27.00000
 30
        3.10000
 11
       14.70000
 21
       27.00000
 31
        3.10000
 12
       14.70000
 22
        0.00000
 32
        3.10000
 13
        0.00000
 23
        0.00000
 33
        3.10000
999
OFFICE.1.0:iz-OFFICE.2.0.FLOOR
  0
3DFACE
  8
OFFICE.1.0
 62
 15
 10
        0.00000
 20
        0.00000
 30
        6.20000
 11
       14.70000
 21
        0.00000
 31
        6.20000
 12
       14.70000
 22
       27.00000
 32
        6.20000
 13
        0.00000
 23
       27.00000
 33
        6.20000
999
OFFICE.2.0:OFFICE.2.0.WALL.0.WEST
  0
3DFACE
  8
OFFICE.2.0
 62
 43
 10
        0.00000
 20
       27.00000
 30
        6.20000
 11
        0.00000
 21
        0.00000
 31
        6.20000
 12
        0.00000
 22
        0.00000
 32
        9.30000
 13
        0.00000
 23
       27.00000
 33
        9.30000
999
OFFICE.2.0:OFFICE.2.0.WALL.0.WEST.WINDOW.0
  0
3DFACE
  8
OFFICE.2.0
 62
143
 10
        0.00000
 20
       20.89425
 30
        6.90103
 11
        0.00000
 21
        6.10575
 31
        6.90103
 12
        0.00000
 22
        6.10575
 32
        8.59897
 13
        0.00000
 23
       20.89425
 33
        8.59897
999
OFFICE.2.0:OFFICE.2.0.WALL.1.SOUTH
  0
3DFACE
  8
OFFICE.2.0
 62
 43
 10
        0.00000
 20
        0.00000
 30
        6.20000
 11
       14.70000
 21
        0.00000
 31
        6.20000
 12
       14.70000
 22
        0.00000
 32
        9.30000
 13
        0.00000
 23
        0.00000
 33
        9.30000
999
OFFICE.2.0:OFFICE.2.0.WALL.1.SOUTH.WINDOW.0
  0
3DFACE
  8
OFFICE.2.0
 62
143
 10
        3.32424
 20
        0.00000
 30
        6.90103
 11
       11.37576
 21
        0.00000
 31
        6.90103
 12
       11.37576
 22
        0.00000
 32
        8.59897
 13
        3.32424
 23
        0.00000
 33
        8.59897
999
OFFICE.2.0:OFFICE.2.0.WALL.2.EAST
  0
3DFACE
  8
OFFICE.2.0
 62
 43
 10
       14.70000
 20
        0.00000
 30
        6.20000
 11
       14.70000
 21
       27.00000
 31
        6.20000
 12
       14.70000
 22
       27.00000
 32
        9.30000
 13
       14.70000
 23
        0.00000
 33
        9.30000
999
OFFICE.2.0:OFFICE.2.0.WALL.2.EAST.WINDOW.0
  0
3DFACE
  8
OFFICE.2.0
 62
143
 10
       14.70000
 20
        6.10575
 30
        6.90103
 11
       14.70000
 21
       20.89425
 31
        6.90103
 12
       14.70000
 22
       20.89425
 32
        8.59897
 13
       14.70000
 23
        6.10575
 33
        8.59897
999
OFFICE.2.0:OFFICE.2.0.WALL.3.NORTH
  0
3DFACE
  8
OFFICE.2.0
 62
 43
 10
       14.70000
 20
       27.00000
 30
        6.20000
 11
        0.00000
 21
       27.00000
 31
        6.20000
 12
        0.00000
 22
       27.00000
 32
        9.30000
 13
       14.70000
 23
       27.00000
 33
        9.30000
999
OFFICE.2.0:OFFICE.2.0.WALL.3.NORTH.WINDOW.0
  0
3DFACE
  8
OFFICE.2.0
 62
143
 10
       11.37576
 20
       27.00000
 30
        6.90103
 11
        3.32424
 21
       27.00000
 31
        6.90103
 12
        3.32424
 22
       27.00000
 32
        8.59897
 13
       11.37576
 23
       27.00000
 33
        8.59897
999
OFFICE.2.0:OFFICE.2.0.FLOOR
  0
3DFACE
  8
OFFICE.2.0
 62
  8
 10
        0.00000
 20
       27.00000
 30
        6.20000
 11
       14.70000
 21
       27.00000
 31
        6.20000
 12
       14.70000
 22
        0.00000
 32
        6.20000
 13
        0.00000
 23
        0.00000
 33
        6.20000
999
OFFICE.2.0:OFFICE.2.0.ROOF
  0
3DFACE
  8
OFFICE.2.0
 62
 15
 10
        0.00000
 20
        0.00000
 30
        9.30000
 11
       14.70000
 21
        0.00000
 31
        9.30000
 12
       14.70000
 22
       27.00000
 32
        9.30000
 13
        0.00000
 23
       27.00000
 33
        9.30000
999
OFFICE.0.0:DayRefPt:1
  0
CIRCLE
  8
OFFICE.0.0
 62
 10
 10
        4.90000
 20
        9.00000
 30
        0.90000
 40
        0.20000
999
OFFICE.0.0:DayRefPt:2
  0
CIRCLE
  8
OFFICE.0.0
 62
  5
 10
        4.90000
 20
       18.00000
 30
        0.90000
 40
        0.20000
999
OFFICE.0.0:DayRefPt:3
  0
CIRCLE
  8
OFFICE.0.0
 62
  5
 10
        9.80000
 20
       18.00000
 30
        0.90000
 40
        0.20000
999
OFFICE.0.0:DayRefPt:4
  0
CIRCLE
  8
OFFICE.0.0
 62
  5
 10
        9.80000
 20
        9.00000
 30
        0.90000
 40
        0.20000
999
OFFICE.0.0:DayRefPt:5
  0
CIRCLE
  8
OFFICE.0.0
 62
  5
 10
        7.35000
 20
       13.50000
 30
        0.90000
 40
        0.20000
999
OFFICE.1.0:DayRefPt:1
  0
CIRCLE
  8
OFFICE.1.0
 62
 10
 10
        4.90000
 20
        9.00000
 30
        4.00000
 40
        0.20000
999
OFFICE.1.0:DayRefPt:2
  0
CIRCLE
  8
OFFICE.1.0
 62
  5
 10
        4.90000
 20
       18.00000
 30
        4.00000
 40
        0.20000
999
OFFICE.1.0:DayRefPt:3
  0
CIRCLE
  8
OFFICE.1.0
 62
  5
 10
        9.80000
 20
       18.00000
 30
        4.00000
 40
        0.20000
999
OFFICE.1.0:DayRefPt:4
  0
CIRCLE
  8
OFFICE.1.0
 62
  5
 10
        9.80000
 20
        9.00000
 30
        4.00000
 40
        0.20000
999
OFFICE.1.0:DayRefPt:5
  0
CIRCLE
  8
OFFICE.1.0
 62
  5
 10
        7.35000
 20
       13.50000
 30
        4.00000
 40
        0.20000
999
OFFICE.2.0:DayRefPt:1
  0
CIRCLE
  8
OFFICE.2.0
 62
 10
 10
        4.90000
 20
        9.00000
 30
        7.10000
 40
        0.20000
999
OFFICE.2.0:DayRefPt:2
  0
CIRCLE
  8
OFFICE.2.0
 62
  5
 10
        4.90000
 20
       18.00000
 30
        7.10000
 40
        0.20000
999
OFFICE.2.0:DayRefPt:3
  0
CIRCLE
  8
OFFICE.2.0
 62
  5
 10
        9.80000
 20
       18.00000
 30
        7.10000
 40
        0.20000
999
OFFICE.2.0:DayRefPt:4
  0
CIRCLE
  8
OFFICE.2.0
 62
  5
 10
        9.80000
 20
        9.00000
 30
        7.10000
 40
        0.20000
999
OFFICE.2.0:DayRefPt:5
  0
CIRCLE
  8
OFFICE.2.0
 62
  5
 10
        7.35000
 20
       13.50000
 30
        7.10000
 40
        0.20000
999
OFFICE.0.0:DEDayRefPt:1
  0
CIRCLE
  8
OFFICE.0.0
 62
 10
 10
        4.90000
 20
        9.00000
 30
        0.90000
 40
        0.20000
999
OFFICE.0.0:DEDayRefPt:2
  0
CIRCLE
  8
OFFICE.0.0
 62
  5
 10
        4.90000
 20
       18.00000
 30
        0.90000
 40
        0.20000
999
OFFICE.0.0:DEDayRefPt:3
  0
CIRCLE
  8
OFFICE.0.0
 62
  5
 10
        9.80000
 20
       18.00000
 30
        0.90000
 40
        0.20000
999
OFFICE.0.0:DEDayRefPt:4
  0
CIRCLE
  8
OFFICE.0.0
 62
  5
 10
        9.80000
 20
        9.00000
 30
        0.90000
 40
        0.20000
999
OFFICE.0.0:DEDayRefPt:5
  0
CIRCLE
  8
OFFICE.0.0
 62
  5
 10
        7.35000
 20
       13.50000
 30
        0.90000
 40
        0.20000
999
OFFICE.1.0:DEDayRefPt:1
  0
CIRCLE
  8
OFFICE.1.0
 62
 10
 10
        4.90000
 20
        9.00000
 30
        4.00000
 40
        0.20000
999
OFFICE.1.0:DEDayRefPt:2
  0
CIRCLE
  8
OFFICE.1.0
 62
  5
 10
        4.90000
 20
       18.00000
 30
        4.00000
 40
        0.20000
999
OFFICE.1.0:DEDayRefPt:3
  0
CIRCLE
  8
OFFICE.1.0
 62
  5
 10
        9.80000
 20
       18.00000
 30
        4.00000
 40
        0.20000
999
OFFICE.1.0:DEDayRefPt:4
  0
CIRCLE
  8
OFFICE.1.0
 62
  5
 10
        9.80000
 20
        9.00000
 30
        4.00000
 40
        0.20000
999
OFFICE.1.0:DEDayRefPt:5
  0
CIRCLE
  8
OFFICE.1.0
 62
  5
 10
        7.35000
 20
       13.50000
 30
        4.00000
 40
        0.20000
999
OFFICE.2.0:DEDayRefPt:1
  0
CIRCLE
  8
OFFICE.2.0
 62
 10
 10
        4.90000
 20
        9.00000
 30
        7.10000
 40
        0.20000
999
OFFICE.2.0:DEDayRefPt:2
  0
CIRCLE
  8
OFFICE.2.0
 62
  5
 10
        4.90000
 20
       18.00000
 30
        7.10000
 40
        0.20000
999
OFFICE.2.0:DEDayRefPt:3
  0
CIRCLE
  8
OFFICE.2.0
 62
  5
 10
        9.80000
 20
       18.00000
 30
        7.10000
 40
        0.20000
999
OFFICE.2.0:DEDayRefPt:4
  0
CIRCLE
  8
OFFICE.2.0
 62
  5
 10
        9.80000
 20
        9.00000
 30
        7.10000
 40
        0.20000
999
OFFICE.2.0:DEDayRefPt:5
  0
CIRCLE
  8
OFFICE.2.0
 62
  5
 10
        7.35000
 20
       13.50000
 30
        7.10000
 40
        0.20000
  0
ENDSEC
  0
EOF
