  0
SECTION
  2
ENTITIES
999
DXF created from EnergyPlus
999
Program Version,EnergyPlus, Version 9.2.0-921312fa1d, YMD=2023.01.02 12:16
999
Polygon Action,ThickPolyline
999
Color Scheme,Default
999
Text - True North
  0
TEXT
  8
1
  6
Continuous
 62
  3
 10
      -11.00000
 20
        3.00000
 30
        0.10000
 40
 .25
  1
True North
 41
 0.0
  7
MONOTXT
210
0.0
220
0.0
230
1.0
999
Text - Building Title
  0
TEXT
  8
1
  6
Continuous
 62
  3
 10
      -14.00000
 20
       -1.00000
 30
        0.10000
 40
 .4
  1
Building - Building1
 41
 0.0
  7
MONOTXT
210
0.0
220
0.0
230
1.0
999
North Arrow Stem
  0
3DFACE
  8
1
 62
  3
 10
      -10.00000
 20
        3.00000
 30
        0.10000
 11
      -10.00000
 21
        3.00000
 31
        0.00000
 12
      -10.00000
 22
        0.00000
 32
        0.00000
 13
      -10.00000
 23
        0.00000
 33
        0.10000
999
North Arrow Head 1
  0
3DFACE
  8
1
 62
  3
 10
      -10.00000
 20
        3.00000
 30
        0.10000
 11
      -10.00000
 21
        3.00000
 31
        0.00000
 12
      -10.50000
 22
        2.13397
 32
        0.00000
 13
      -10.50000
 23
        2.13397
 33
        0.10000
999
North Arrow Head 2
  0
3DFACE
  8
1
 62
  3
 10
      -10.00000
 20
        3.00000
 30
        0.10000
 11
      -10.00000
 21
        3.00000
 31
        0.00000
 12
       -9.50000
 22
        2.13397
 32
        0.00000
 13
       -9.50000
 23
        2.13397
 33
        0.10000
999
North Arrow Side 1
  0
3DFACE
  8
1
 62
  3
 10
      -10.50000
 20
        4.50000
 30
        0.10000
 11
      -10.50000
 21
        4.50000
 31
        0.00000
 12
      -10.50000
 22
        3.50000
 32
        0.00000
 13
      -10.50000
 23
        3.50000
 33
        0.10000
999
North Arrow Side 2
  0
3DFACE
  8
1
 62
  3
 10
      -10.50000
 20
        4.50000
 30
        0.10000
 11
      -10.50000
 21
        4.50000
 31
        0.00000
 12
       -9.50000
 22
        3.50000
 32
        0.00000
 13
       -9.50000
 23
        3.50000
 33
        0.10000
999
North Arrow Side 3
  0
3DFACE
  8
1
 62
  3
 10
       -9.50000
 20
        4.50000
 30
        0.10000
 11
       -9.50000
 21
        4.50000
 31
        0.00000
 12
       -9.50000
 22
        3.50000
 32
        0.00000
 13
       -9.50000
 23
        3.50000
 33
        0.10000
999
Zone Names
999
Zone=1:OFFICE.0.0
999
Zone=2:OFFICE.1.0
999
Zone=3:OFFICE.2.0
999
OFFICE.0.0:OFFICE.0.0.WALL.0.WEST
  0
3DFACE
  8
OFFICE.0.0
 62
 43
 10
        0.00000
 20
       23.38269
 30
        0.00000
 11
       13.50000
 21
        0.00000
 31
        0.00000
 12
       13.50000
 22
        0.00000
 32
        3.10000
 13
        0.00000
 23
       23.38269
 33
        3.10000
999
OFFICE.0.0:OFFICE.0.0.WALL.0.WEST.WINDOW.0
  0
3DFACE
  8
OFFICE.0.0
 62
143
 10
        2.87242
 20
       18.40751
 30
        0.65959
 11
       10.62758
 21
        4.97518
 31
        0.65959
 12
       10.62758
 22
        4.97518
 32
        2.44041
 13
        2.87242
 23
       18.40751
 33
        2.44041
999
OFFICE.0.0:OFFICE.0.0.WALL.1.SOUTH
  0
3DFACE
  8
OFFICE.0.0
 62
 43
 10
       13.50000
 20
        0.00000
 30
        0.00000
 11
       26.23057
 21
        7.35000
 31
        0.00000
 12
       26.23057
 22
        7.35000
 32
        3.10000
 13
       13.50000
 23
        0.00000
 33
        3.10000
999
OFFICE.0.0:OFFICE.0.0.WALL.1.SOUTH.WINDOW.0
  0
3DFACE
  8
OFFICE.0.0
 62
143
 10
       16.20871
 20
        1.56387
 30
        0.65959
 11
       23.52186
 21
        5.78613
 31
        0.65959
 12
       23.52186
 22
        5.78613
 32
        2.44041
 13
       16.20871
 23
        1.56387
 33
        2.44041
999
OFFICE.0.0:OFFICE.0.0.WALL.2.EAST
  0
3DFACE
  8
OFFICE.0.0
 62
 43
 10
       26.23057
 20
        7.35000
 30
        0.00000
 11
       12.73057
 21
       30.73269
 31
        0.00000
 12
       12.73057
 22
       30.73269
 32
        3.10000
 13
       26.23057
 23
        7.35000
 33
        3.10000
999
OFFICE.0.0:OFFICE.0.0.WALL.2.EAST.WINDOW.0
  0
3DFACE
  8
OFFICE.0.0
 62
143
 10
       23.35815
 20
       12.32518
 30
        0.65959
 11
       15.60299
 21
       25.75751
 31
        0.65959
 12
       15.60299
 22
       25.75751
 32
        2.44041
 13
       23.35815
 23
       12.32518
 33
        2.44041
999
OFFICE.0.0:OFFICE.0.0.WALL.3.NORTH
  0
3DFACE
  8
OFFICE.0.0
 62
 43
 10
       12.73057
 20
       30.73269
 30
        0.00000
 11
        0.00000
 21
       23.38269
 31
        0.00000
 12
        0.00000
 22
       23.38269
 32
        3.10000
 13
       12.73057
 23
       30.73269
 33
        3.10000
999
OFFICE.0.0:OFFICE.0.0.WALL.3.NORTH.WINDOW.0
  0
3DFACE
  8
OFFICE.0.0
 62
143
 10
       10.02186
 20
       29.16882
 30
        0.65959
 11
        2.70871
 21
       24.94656
 31
        0.65959
 12
        2.70871
 22
       24.94656
 32
        2.44041
 13
       10.02186
 23
       29.16882
 33
        2.44041
999
OFFICE.0.0:OFFICE.0.0.FLOOR
  0
3DFACE
  8
OFFICE.0.0
 62
  8
 10
        0.00000
 20
       23.38269
 30
        0.00000
 11
       12.73057
 21
       30.73269
 31
        0.00000
 12
       26.23057
 22
        7.35000
 32
        0.00000
 13
       13.50000
 23
        0.00000
 33
        0.00000
999
OFFICE.0.0:iz-OFFICE.1.0.FLOOR
  0
3DFACE
  8
OFFICE.0.0
 62
 15
 10
       13.50000
 20
        0.00000
 30
        3.10000
 11
       26.23057
 21
        7.35000
 31
        3.10000
 12
       12.73057
 22
       30.73269
 32
        3.10000
 13
        0.00000
 23
       23.38269
 33
        3.10000
999
OFFICE.1.0:OFFICE.1.0.WALL.0.WEST
  0
3DFACE
  8
OFFICE.1.0
 62
 43
 10
        0.00000
 20
       23.38269
 30
        3.10000
 11
       13.50000
 21
        0.00000
 31
        3.10000
 12
       13.50000
 22
        0.00000
 32
        6.20000
 13
        0.00000
 23
       23.38269
 33
        6.20000
999
OFFICE.1.0:OFFICE.1.0.WALL.0.WEST.WINDOW.0
  0
3DFACE
  8
OFFICE.1.0
 62
143
 10
        2.87242
 20
       18.40751
 30
        3.75959
 11
       10.62758
 21
        4.97518
 31
        3.75959
 12
       10.62758
 22
        4.97518
 32
        5.54041
 13
        2.87242
 23
       18.40751
 33
        5.54041
999
OFFICE.1.0:OFFICE.1.0.WALL.1.SOUTH
  0
3DFACE
  8
OFFICE.1.0
 62
 43
 10
       13.50000
 20
        0.00000
 30
        3.10000
 11
       26.23057
 21
        7.35000
 31
        3.10000
 12
       26.23057
 22
        7.35000
 32
        6.20000
 13
       13.50000
 23
        0.00000
 33
        6.20000
999
OFFICE.1.0:OFFICE.1.0.WALL.1.SOUTH.WINDOW.0
  0
3DFACE
  8
OFFICE.1.0
 62
143
 10
       16.20871
 20
        1.56387
 30
        3.75959
 11
       23.52186
 21
        5.78613
 31
        3.75959
 12
       23.52186
 22
        5.78613
 32
        5.54041
 13
       16.20871
 23
        1.56387
 33
        5.54041
999
OFFICE.1.0:OFFICE.1.0.WALL.2.EAST
  0
3DFACE
  8
OFFICE.1.0
 62
 43
 10
       26.23057
 20
        7.35000
 30
        3.10000
 11
       12.73057
 21
       30.73269
 31
        3.10000
 12
       12.73057
 22
       30.73269
 32
        6.20000
 13
       26.23057
 23
        7.35000
 33
        6.20000
999
OFFICE.1.0:OFFICE.1.0.WALL.2.EAST.WINDOW.0
  0
3DFACE
  8
OFFICE.1.0
 62
143
 10
       23.35815
 20
       12.32518
 30
        3.75959
 11
       15.60299
 21
       25.75751
 31
        3.75959
 12
       15.60299
 22
       25.75751
 32
        5.54041
 13
       23.35815
 23
       12.32518
 33
        5.54041
999
OFFICE.1.0:OFFICE.1.0.WALL.3.NORTH
  0
3DFACE
  8
OFFICE.1.0
 62
 43
 10
       12.73057
 20
       30.73269
 30
        3.10000
 11
        0.00000
 21
       23.38269
 31
        3.10000
 12
        0.00000
 22
       23.38269
 32
        6.20000
 13
       12.73057
 23
       30.73269
 33
        6.20000
999
OFFICE.1.0:OFFICE.1.0.WALL.3.NORTH.WINDOW.0
  0
3DFACE
  8
OFFICE.1.0
 62
143
 10
       10.02186
 20
       29.16882
 30
        3.75959
 11
        2.70871
 21
       24.94656
 31
        3.75959
 12
        2.70871
 22
       24.94656
 32
        5.54041
 13
       10.02186
 23
       29.16882
 33
        5.54041
999
OFFICE.1.0:OFFICE.1.0.FLOOR
  0
3DFACE
  8
OFFICE.1.0
 62
  8
 10
        0.00000
 20
       23.38269
 30
        3.10000
 11
       12.73057
 21
       30.73269
 31
        3.10000
 12
       26.23057
 22
        7.35000
 32
        3.10000
 13
       13.50000
 23
        0.00000
 33
        3.10000
999
OFFICE.1.0:iz-OFFICE.2.0.FLOOR
  0
3DFACE
  8
OFFICE.1.0
 62
 15
 10
       13.50000
 20
        0.00000
 30
        6.20000
 11
       26.23057
 21
        7.35000
 31
        6.20000
 12
       12.73057
 22
       30.73269
 32
        6.20000
 13
        0.00000
 23
       23.38269
 33
        6.20000
999
OFFICE.2.0:OFFICE.2.0.WALL.0.WEST
  0
3DFACE
  8
OFFICE.2.0
 62
 43
 10
        0.00000
 20
       23.38269
 30
        6.20000
 11
       13.50000
 21
        0.00000
 31
        6.20000
 12
       13.50000
 22
        0.00000
 32
        9.30000
 13
        0.00000
 23
       23.38269
 33
        9.30000
999
OFFICE.2.0:OFFICE.2.0.WALL.0.WEST.WINDOW.0
  0
3DFACE
  8
OFFICE.2.0
 62
143
 10
        2.87242
 20
       18.40751
 30
        6.85959
 11
       10.62758
 21
        4.97518
 31
        6.85959
 12
       10.62758
 22
        4.97518
 32
        8.64041
 13
        2.87242
 23
       18.40751
 33
        8.64041
999
OFFICE.2.0:OFFICE.2.0.WALL.1.SOUTH
  0
3DFACE
  8
OFFICE.2.0
 62
 43
 10
       13.50000
 20
        0.00000
 30
        6.20000
 11
       26.23057
 21
        7.35000
 31
        6.20000
 12
       26.23057
 22
        7.35000
 32
        9.30000
 13
       13.50000
 23
        0.00000
 33
        9.30000
999
OFFICE.2.0:OFFICE.2.0.WALL.1.SOUTH.WINDOW.0
  0
3DFACE
  8
OFFICE.2.0
 62
143
 10
       16.20871
 20
        1.56387
 30
        6.85959
 11
       23.52186
 21
        5.78613
 31
        6.85959
 12
       23.52186
 22
        5.78613
 32
        8.64041
 13
       16.20871
 23
        1.56387
 33
        8.64041
999
OFFICE.2.0:OFFICE.2.0.WALL.2.EAST
  0
3DFACE
  8
OFFICE.2.0
 62
 43
 10
       26.23057
 20
        7.35000
 30
        6.20000
 11
       12.73057
 21
       30.73269
 31
        6.20000
 12
       12.73057
 22
       30.73269
 32
        9.30000
 13
       26.23057
 23
        7.35000
 33
        9.30000
999
OFFICE.2.0:OFFICE.2.0.WALL.2.EAST.WINDOW.0
  0
3DFACE
  8
OFFICE.2.0
 62
143
 10
       23.35815
 20
       12.32518
 30
        6.85959
 11
       15.60299
 21
       25.75751
 31
        6.85959
 12
       15.60299
 22
       25.75751
 32
        8.64041
 13
       23.35815
 23
       12.32518
 33
        8.64041
999
OFFICE.2.0:OFFICE.2.0.WALL.3.NORTH
  0
3DFACE
  8
OFFICE.2.0
 62
 43
 10
       12.73057
 20
       30.73269
 30
        6.20000
 11
        0.00000
 21
       23.38269
 31
        6.20000
 12
        0.00000
 22
       23.38269
 32
        9.30000
 13
       12.73057
 23
       30.73269
 33
        9.30000
999
OFFICE.2.0:OFFICE.2.0.WALL.3.NORTH.WINDOW.0
  0
3DFACE
  8
OFFICE.2.0
 62
143
 10
       10.02186
 20
       29.16882
 30
        6.85959
 11
        2.70871
 21
       24.94656
 31
        6.85959
 12
        2.70871
 22
       24.94656
 32
        8.64041
 13
       10.02186
 23
       29.16882
 33
        8.64041
999
OFFICE.2.0:OFFICE.2.0.FLOOR
  0
3DFACE
  8
OFFICE.2.0
 62
  8
 10
        0.00000
 20
       23.38269
 30
        6.20000
 11
       12.73057
 21
       30.73269
 31
        6.20000
 12
       26.23057
 22
        7.35000
 32
        6.20000
 13
       13.50000
 23
        0.00000
 33
        6.20000
999
OFFICE.2.0:OFFICE.2.0.ROOF
  0
3DFACE
  8
OFFICE.2.0
 62
 15
 10
       13.50000
 20
        0.00000
 30
        9.30000
 11
       26.23057
 21
        7.35000
 31
        9.30000
 12
       12.73057
 22
       30.73269
 32
        9.30000
 13
        0.00000
 23
       23.38269
 33
        9.30000
999
OFFICE.0.0:DayRefPt:1
  0
CIRCLE
  8
OFFICE.0.0
 62
 10
 10
       13.24352
 20
       10.24423
 30
        0.90000
 40
        0.20000
999
OFFICE.0.0:DayRefPt:2
  0
CIRCLE
  8
OFFICE.0.0
 62
  5
 10
        8.74352
 20
       18.03846
 30
        0.90000
 40
        0.20000
999
OFFICE.0.0:DayRefPt:3
  0
CIRCLE
  8
OFFICE.0.0
 62
  5
 10
       12.98705
 20
       20.48846
 30
        0.90000
 40
        0.20000
999
OFFICE.0.0:DayRefPt:4
  0
CIRCLE
  8
OFFICE.0.0
 62
  5
 10
       17.48705
 20
       12.69423
 30
        0.90000
 40
        0.20000
999
OFFICE.0.0:DayRefPt:5
  0
CIRCLE
  8
OFFICE.0.0
 62
  5
 10
       13.11529
 20
       15.36634
 30
        0.90000
 40
        0.20000
999
OFFICE.1.0:DayRefPt:1
  0
CIRCLE
  8
OFFICE.1.0
 62
 10
 10
       13.24352
 20
       10.24423
 30
        4.00000
 40
        0.20000
999
OFFICE.1.0:DayRefPt:2
  0
CIRCLE
  8
OFFICE.1.0
 62
  5
 10
        8.74352
 20
       18.03846
 30
        4.00000
 40
        0.20000
999
OFFICE.1.0:DayRefPt:3
  0
CIRCLE
  8
OFFICE.1.0
 62
  5
 10
       12.98705
 20
       20.48846
 30
        4.00000
 40
        0.20000
999
OFFICE.1.0:DayRefPt:4
  0
CIRCLE
  8
OFFICE.1.0
 62
  5
 10
       17.48705
 20
       12.69423
 30
        4.00000
 40
        0.20000
999
OFFICE.1.0:DayRefPt:5
  0
CIRCLE
  8
OFFICE.1.0
 62
  5
 10
       13.11529
 20
       15.36634
 30
        4.00000
 40
        0.20000
999
OFFICE.2.0:DayRefPt:1
  0
CIRCLE
  8
OFFICE.2.0
 62
 10
 10
       13.24352
 20
       10.24423
 30
        7.10000
 40
        0.20000
999
OFFICE.2.0:DayRefPt:2
  0
CIRCLE
  8
OFFICE.2.0
 62
  5
 10
        8.74352
 20
       18.03846
 30
        7.10000
 40
        0.20000
999
OFFICE.2.0:DayRefPt:3
  0
CIRCLE
  8
OFFICE.2.0
 62
  5
 10
       12.98705
 20
       20.48846
 30
        7.10000
 40
        0.20000
999
OFFICE.2.0:DayRefPt:4
  0
CIRCLE
  8
OFFICE.2.0
 62
  5
 10
       17.48705
 20
       12.69423
 30
        7.10000
 40
        0.20000
999
OFFICE.2.0:DayRefPt:5
  0
CIRCLE
  8
OFFICE.2.0
 62
  5
 10
       13.11529
 20
       15.36634
 30
        7.10000
 40
        0.20000
999
OFFICE.0.0:DEDayRefPt:1
  0
CIRCLE
  8
OFFICE.0.0
 62
 10
 10
       13.24352
 20
       10.24423
 30
        0.90000
 40
        0.20000
999
OFFICE.0.0:DEDayRefPt:2
  0
CIRCLE
  8
OFFICE.0.0
 62
  5
 10
        8.74352
 20
       18.03846
 30
        0.90000
 40
        0.20000
999
OFFICE.0.0:DEDayRefPt:3
  0
CIRCLE
  8
OFFICE.0.0
 62
  5
 10
       12.98705
 20
       20.48846
 30
        0.90000
 40
        0.20000
999
OFFICE.0.0:DEDayRefPt:4
  0
CIRCLE
  8
OFFICE.0.0
 62
  5
 10
       17.48705
 20
       12.69423
 30
        0.90000
 40
        0.20000
999
OFFICE.0.0:DEDayRefPt:5
  0
CIRCLE
  8
OFFICE.0.0
 62
  5
 10
       13.11529
 20
       15.36634
 30
        0.90000
 40
        0.20000
999
OFFICE.1.0:DEDayRefPt:1
  0
CIRCLE
  8
OFFICE.1.0
 62
 10
 10
       13.24352
 20
       10.24423
 30
        4.00000
 40
        0.20000
999
OFFICE.1.0:DEDayRefPt:2
  0
CIRCLE
  8
OFFICE.1.0
 62
  5
 10
        8.74352
 20
       18.03846
 30
        4.00000
 40
        0.20000
999
OFFICE.1.0:DEDayRefPt:3
  0
CIRCLE
  8
OFFICE.1.0
 62
  5
 10
       12.98705
 20
       20.48846
 30
        4.00000
 40
        0.20000
999
OFFICE.1.0:DEDayRefPt:4
  0
CIRCLE
  8
OFFICE.1.0
 62
  5
 10
       17.48705
 20
       12.69423
 30
        4.00000
 40
        0.20000
999
OFFICE.1.0:DEDayRefPt:5
  0
CIRCLE
  8
OFFICE.1.0
 62
  5
 10
       13.11529
 20
       15.36634
 30
        4.00000
 40
        0.20000
999
OFFICE.2.0:DEDayRefPt:1
  0
CIRCLE
  8
OFFICE.2.0
 62
 10
 10
       13.24352
 20
       10.24423
 30
        7.10000
 40
        0.20000
999
OFFICE.2.0:DEDayRefPt:2
  0
CIRCLE
  8
OFFICE.2.0
 62
  5
 10
        8.74352
 20
       18.03846
 30
        7.10000
 40
        0.20000
999
OFFICE.2.0:DEDayRefPt:3
  0
CIRCLE
  8
OFFICE.2.0
 62
  5
 10
       12.98705
 20
       20.48846
 30
        7.10000
 40
        0.20000
999
OFFICE.2.0:DEDayRefPt:4
  0
CIRCLE
  8
OFFICE.2.0
 62
  5
 10
       17.48705
 20
       12.69423
 30
        7.10000
 40
        0.20000
999
OFFICE.2.0:DEDayRefPt:5
  0
CIRCLE
  8
OFFICE.2.0
 62
  5
 10
       13.11529
 20
       15.36634
 30
        7.10000
 40
        0.20000
  0
ENDSEC
  0
EOF
