Program Version,EnergyPlus, Version 22.2.0-c249759bad, YMD=2023.04.03 12:51,
   ** Warning ** Output:PreprocessorMessage="ExpandObjects" has the following Warning condition:
   **   ~~~   ** Cannot find Energy+.idd as specified in Energy+.ini.
   ** Warning ** Output:PreprocessorMessage="ExpandObjects" has the following Warning conditions:
   **   ~~~   ** Since the Energy+.IDD file cannot be read no range or choice checking was
   **   ~~~   ** performed.
   ************* Beginning Zone Sizing Calculations
   ** Warning ** Site:GroundTemperature:BuildingSurface: Some values fall outside the range of 15-25C.
   **   ~~~   ** These values may be inappropriate.  Please consult the Input Output Reference for more details.
   ** Warning ** ProcessScheduleInput: Schedule:Compact="GENERIC.ALWAYS1", Schedule Type Limits Name="ANYNUMBER" not found -- will not be validated
   ** Warning ** ProcessScheduleInput: Schedule:Compact="GENERIC.ALWAYS01", Schedule Type Limits Name="ANYNUMBER" not found -- will not be validated
   ** Warning ** ProcessScheduleInput: Schedule:Compact="OFFICE.COOLINGSETPOINT", Schedule Type Limits Name="ANYNUMBER" not found -- will not be validated
   ** Warning ** ProcessScheduleInput: Schedule:Compact="OFFICE.ELECTRICEQUIPMENT", Schedule Type Limits Name="ANYNUMBER" not found -- will not be validated
   ** Warning ** ProcessScheduleInput: Schedule:Compact="OFFICE.LIGHTS", Schedule Type Limits Name="ANYNUMBER" not found -- will not be validated
   ** Warning ** ProcessScheduleInput: Schedule:Compact="OFFICE.PEOPLE", Schedule Type Limits Name="ANYNUMBER" not found -- will not be validated
   ** Warning ** ProcessScheduleInput: Schedule:Compact="OFFICE.ACTIVITY", Schedule Type Limits Name="ANYNUMBER" not found -- will not be validated
   ** Warning ** ProcessScheduleInput: Schedule:Compact="STAIRS.COOLINGSETPOINT", Schedule Type Limits Name="ANYNUMBER" not found -- will not be validated
   ** Warning ** ProcessScheduleInput: Schedule:Compact="STAIRS.ELECTRICEQUIPMENT", Schedule Type Limits Name="ANYNUMBER" not found -- will not be validated
   ** Warning ** ProcessScheduleInput: Schedule:Compact="STAIRS.LIGHTS", Schedule Type Limits Name="ANYNUMBER" not found -- will not be validated
   ** Warning ** ProcessScheduleInput: Schedule:Compact="STAIRS.PEOPLE", Schedule Type Limits Name="ANYNUMBER" not found -- will not be validated
   ** Warning ** ProcessScheduleInput: Schedule:Compact="STAIRS.ACTIVITY", Schedule Type Limits Name="ANYNUMBER" not found -- will not be validated
   ** Warning ** ProcessScheduleInput: Schedule:Compact="TOILET.HEATINGSETPOINT", Schedule Type Limits Name="ANYNUMBER" not found -- will not be validated
   ** Warning ** ProcessScheduleInput: Schedule:Compact="TOILET.COOLINGSETPOINT", Schedule Type Limits Name="ANYNUMBER" not found -- will not be validated
   ** Warning ** ProcessScheduleInput: Schedule:Compact="TOILET.ELECTRICEQUIPMENT", Schedule Type Limits Name="ANYNUMBER" not found -- will not be validated
   ** Warning ** ProcessScheduleInput: Schedule:Compact="TOILET.LIGHTS", Schedule Type Limits Name="ANYNUMBER" not found -- will not be validated
   ** Warning ** ProcessScheduleInput: Schedule:Compact="TOILET.PEOPLE", Schedule Type Limits Name="ANYNUMBER" not found -- will not be validated
   ** Warning ** ProcessScheduleInput: Schedule:Compact="TOILET.ACTIVITY", Schedule Type Limits Name="ANYNUMBER" not found -- will not be validated
   ** Warning ** ProcessScheduleInput: Schedule:Compact="SERVICE.HEATINGSETPOINT", Schedule Type Limits Name="ANYNUMBER" not found -- will not be validated
   ** Warning ** ProcessScheduleInput: Schedule:Compact="SERVICE.COOLINGSETPOINT", Schedule Type Limits Name="ANYNUMBER" not found -- will not be validated
   ** Warning ** ProcessScheduleInput: Schedule:Compact="SERVICE.ELECTRICEQUIPMENT", Schedule Type Limits Name="ANYNUMBER" not found -- will not be validated
   ** Warning ** ProcessScheduleInput: Schedule:Compact="SERVICE.LIGHTS", Schedule Type Limits Name="ANYNUMBER" not found -- will not be validated
   ** Warning ** ProcessScheduleInput: Schedule:Compact="SERVICE.PEOPLE", Schedule Type Limits Name="ANYNUMBER" not found -- will not be validated
   ** Warning ** ProcessScheduleInput: Schedule:Compact="SERVICE.ACTIVITY", Schedule Type Limits Name="ANYNUMBER" not found -- will not be validated
   ** Warning ** ProcessScheduleInput: Schedule:Compact="CORRIDOR.COOLINGSETPOINT", Schedule Type Limits Name="ANYNUMBER" not found -- will not be validated
   ** Warning ** ProcessScheduleInput: Schedule:Compact="CORRIDOR.ELECTRICEQUIPMENT", Schedule Type Limits Name="ANYNUMBER" not found -- will not be validated
   ** Warning ** ProcessScheduleInput: Schedule:Compact="CORRIDOR.LIGHTS", Schedule Type Limits Name="ANYNUMBER" not found -- will not be validated
   ** Warning ** ProcessScheduleInput: Schedule:Compact="CORRIDOR.PEOPLE", Schedule Type Limits Name="ANYNUMBER" not found -- will not be validated
   ** Warning ** ProcessScheduleInput: Schedule:Compact="CORRIDOR.ACTIVITY", Schedule Type Limits Name="ANYNUMBER" not found -- will not be validated
   ** Warning ** ProcessScheduleInput: Schedule:Compact="TECHNIC.HEATINGSETPOINT", Schedule Type Limits Name="ANYNUMBER" not found -- will not be validated
   ** Warning ** ProcessScheduleInput: Schedule:Compact="TECHNIC.COOLINGSETPOINT", Schedule Type Limits Name="ANYNUMBER" not found -- will not be validated
   ** Warning ** ProcessScheduleInput: Schedule:Compact="TECHNIC.ELECTRICEQUIPMENT", Schedule Type Limits Name="ANYNUMBER" not found -- will not be validated
   ** Warning ** ProcessScheduleInput: Schedule:Compact="TECHNIC.LIGHTS", Schedule Type Limits Name="ANYNUMBER" not found -- will not be validated
   ** Warning ** ProcessScheduleInput: Schedule:Compact="TECHNIC.PEOPLE", Schedule Type Limits Name="ANYNUMBER" not found -- will not be validated
   ** Warning ** ProcessScheduleInput: Schedule:Compact="TECHNIC.ACTIVITY", Schedule Type Limits Name="ANYNUMBER" not found -- will not be validated
   ** Warning ** ProcessScheduleInput: Schedule:Compact="OFFICE.HEATINGSETPOINT", Schedule Type Limits Name="ANYNUMBER" not found -- will not be validated
   ** Warning ** ProcessScheduleInput: Schedule:Compact="CORRIDOR.HEATINGSETPOINT", Schedule Type Limits Name="ANYNUMBER" not found -- will not be validated
   ** Warning ** ProcessScheduleInput: Schedule:Compact="STAIRS.HEATINGSETPOINT", Schedule Type Limits Name="ANYNUMBER" not found -- will not be validated
   ** Warning ** CheckUsedConstructions: There are 4 nominally unused constructions in input.
   **   ~~~   ** Each Unused construction is shown.
   ************* Construction=WALLEXTERNAL
   ************* Construction=FLOORGROUND
   ************* Construction=ROOF
   ************* Construction=WINDOW
   ************* Beginning Plant Sizing Calculations
   ** Warning ** COIL:COOLING:WATERTOAIRHEATPUMP:EQUATIONFIT "OFFICE-0-0 WAHP COOLING COIL"
   **   ~~~   ** SizeWaterToAirCoil: Rated Sensible Cooling Capacity > Rated Total Cooling Capacity
   **   ~~~   ** Both of these capacity inputs have been autosized.
   **   ~~~   ** Rated Sensible Cooling Capacity at Rated Conditions = 2824.20 W
   **   ~~~   ** Rated Total Cooling Capacity at Rated Conditions    = 1524.67 W
   **   ~~~   ** See eio file for further details.
   **   ~~~   ** Check Total and Sensible Cooling Capacity coefficients in curves to ensure they are accurate.
   **   ~~~   ** Check Zone and System Sizing objects to verify sizing inputs.
   **   ~~~   ** Sizing statistics:
   **   ~~~   ** Rated entering Air Wet-Bulb Temperature = 19.000 C
   **   ~~~   ** Peak entering Air Wet-Bulb Temperature = 17.945 C
   **   ~~~   ** Entering Water Temperature used = 30.000 C
   **   ~~~   ** Design air and water flow rates = 1.0
   **   ~~~   ** Rated ratio of load-side air wet-bulb temperature to 283.15 C (Rated ratioTWB) = 1.031
   **   ~~~   ** Rated ratio of source-side inlet water temperature to 283.15 C (Rated ratioTS)  = 1.070
   **   ~~~   ** Peak ratio of load-side air wet-bulb temperature to 283.15 C (Peak ratioTWB) = 1.028
   **   ~~~   ** Peak ratio of source-side inlet water temperature to 283.15 C (Peak ratioTS)  = 1.084
   **   ~~~   ** Rated Total Cooling Capacity Modifier = 1.00000
   **   ~~~   ** Peak Design Total Cooling Capacity Modifier = 0.93395
   **   ~~~   ** Rated Sensible Cooling Capacity Modifier = 1.00000
   **   ~~~   ** Peak Design Sensible Cooling Capacity Modifier = 0.99138
   **   ~~~   ** ...Rated Total Cooling Capacity at Rated Conditions = Total Peak Design Load * Rated Total Cooling Capacity Modifier  / Peak Design Total Cooling Capacity Modifier
   **   ~~~   ** ...Rated Sensible Cooling Capacity at Rated Conditions = Peak Design Sensible Load * Rated Sensible Cooling Capacity Modifier  / Peak Design Sensible Cooling Capacity Modifier
   **   ~~~   ** Carefully review the Load Side Total, Sensible, and Latent heat transfer rates
   **   ~~~   ** ... to ensure they meet the expected manufacturers performance specifications.
   ** Warning ** COIL:HEATING:WATERTOAIRHEATPUMP:EQUATIONFIT "OFFICE-0-0 WAHP HEATING COIL"
   **   ~~~   ** ...used with COIL:COOLING:WATERTOAIRHEATPUMP:EQUATIONFIT "OFFICE-0-0 WAHP COOLING COIL"
   **   ~~~   ** ...heating capacity is disproportionate (> 20% different) to total cooling capacity
   **   ~~~   ** ...heating capacity = 4000.000 W
   **   ~~~   ** ...cooling capacity = 1524.677 W
   ** Warning ** COIL:COOLING:WATERTOAIRHEATPUMP:EQUATIONFIT "OFFICE-0-1 WAHP COOLING COIL"
   **   ~~~   ** SizeWaterToAirCoil: Rated Sensible Cooling Capacity > Rated Total Cooling Capacity
   **   ~~~   ** Both of these capacity inputs have been autosized.
   **   ~~~   ** Rated Sensible Cooling Capacity at Rated Conditions = 1838.78 W
   **   ~~~   ** Rated Total Cooling Capacity at Rated Conditions    = 1408.69 W
   **   ~~~   ** See eio file for further details.
   **   ~~~   ** Check Total and Sensible Cooling Capacity coefficients in curves to ensure they are accurate.
   **   ~~~   ** Check Zone and System Sizing objects to verify sizing inputs.
   **   ~~~   ** Sizing statistics:
   **   ~~~   ** Rated entering Air Wet-Bulb Temperature = 19.000 C
   **   ~~~   ** Peak entering Air Wet-Bulb Temperature = 18.550 C
   **   ~~~   ** Entering Water Temperature used = 30.000 C
   **   ~~~   ** Design air and water flow rates = 1.0
   **   ~~~   ** Rated ratio of load-side air wet-bulb temperature to 283.15 C (Rated ratioTWB) = 1.031
   **   ~~~   ** Rated ratio of source-side inlet water temperature to 283.15 C (Rated ratioTS)  = 1.070
   **   ~~~   ** Peak ratio of load-side air wet-bulb temperature to 283.15 C (Peak ratioTWB) = 1.030
   **   ~~~   ** Peak ratio of source-side inlet water temperature to 283.15 C (Peak ratioTS)  = 1.084
   **   ~~~   ** Rated Total Cooling Capacity Modifier = 1.00000
   **   ~~~   ** Peak Design Total Cooling Capacity Modifier = 0.95764
   **   ~~~   ** Rated Sensible Cooling Capacity Modifier = 1.00000
   **   ~~~   ** Peak Design Sensible Cooling Capacity Modifier = 0.99939
   **   ~~~   ** ...Rated Total Cooling Capacity at Rated Conditions = Total Peak Design Load * Rated Total Cooling Capacity Modifier  / Peak Design Total Cooling Capacity Modifier
   **   ~~~   ** ...Rated Sensible Cooling Capacity at Rated Conditions = Peak Design Sensible Load * Rated Sensible Cooling Capacity Modifier  / Peak Design Sensible Cooling Capacity Modifier
   **   ~~~   ** Carefully review the Load Side Total, Sensible, and Latent heat transfer rates
   **   ~~~   ** ... to ensure they meet the expected manufacturers performance specifications.
   ** Warning ** COIL:HEATING:WATERTOAIRHEATPUMP:EQUATIONFIT "OFFICE-0-1 WAHP HEATING COIL"
   **   ~~~   ** ...used with COIL:COOLING:WATERTOAIRHEATPUMP:EQUATIONFIT "OFFICE-0-1 WAHP COOLING COIL"
   **   ~~~   ** ...heating capacity is disproportionate (> 20% different) to total cooling capacity
   **   ~~~   ** ...heating capacity = 4000.000 W
   **   ~~~   ** ...cooling capacity = 1408.695 W
   ** Warning ** COIL:COOLING:WATERTOAIRHEATPUMP:EQUATIONFIT "OFFICE-0-2 WAHP COOLING COIL"
   **   ~~~   ** SizeWaterToAirCoil: Rated Sensible Cooling Capacity > Rated Total Cooling Capacity
   **   ~~~   ** Both of these capacity inputs have been autosized.
   **   ~~~   ** Rated Sensible Cooling Capacity at Rated Conditions = 2042.34 W
   **   ~~~   ** Rated Total Cooling Capacity at Rated Conditions    = 1034.87 W
   **   ~~~   ** See eio file for further details.
   **   ~~~   ** Check Total and Sensible Cooling Capacity coefficients in curves to ensure they are accurate.
   **   ~~~   ** Check Zone and System Sizing objects to verify sizing inputs.
   **   ~~~   ** Sizing statistics:
   **   ~~~   ** Rated entering Air Wet-Bulb Temperature = 19.000 C
   **   ~~~   ** Peak entering Air Wet-Bulb Temperature = 17.652 C
   **   ~~~   ** Entering Water Temperature used = 30.000 C
   **   ~~~   ** Design air and water flow rates = 1.0
   **   ~~~   ** Rated ratio of load-side air wet-bulb temperature to 283.15 C (Rated ratioTWB) = 1.031
   **   ~~~   ** Rated ratio of source-side inlet water temperature to 283.15 C (Rated ratioTS)  = 1.070
   **   ~~~   ** Peak ratio of load-side air wet-bulb temperature to 283.15 C (Peak ratioTWB) = 1.027
   **   ~~~   ** Peak ratio of source-side inlet water temperature to 283.15 C (Peak ratioTS)  = 1.084
   **   ~~~   ** Rated Total Cooling Capacity Modifier = 1.00000
   **   ~~~   ** Peak Design Total Cooling Capacity Modifier = 0.92248
   **   ~~~   ** Rated Sensible Cooling Capacity Modifier = 1.00000
   **   ~~~   ** Peak Design Sensible Cooling Capacity Modifier = 0.87966
   **   ~~~   ** ...Rated Total Cooling Capacity at Rated Conditions = Total Peak Design Load * Rated Total Cooling Capacity Modifier  / Peak Design Total Cooling Capacity Modifier
   **   ~~~   ** ...Rated Sensible Cooling Capacity at Rated Conditions = Peak Design Sensible Load * Rated Sensible Cooling Capacity Modifier  / Peak Design Sensible Cooling Capacity Modifier
   **   ~~~   ** Carefully review the Load Side Total, Sensible, and Latent heat transfer rates
   **   ~~~   ** ... to ensure they meet the expected manufacturers performance specifications.
   ** Warning ** COIL:HEATING:WATERTOAIRHEATPUMP:EQUATIONFIT "OFFICE-0-2 WAHP HEATING COIL"
   **   ~~~   ** ...used with COIL:COOLING:WATERTOAIRHEATPUMP:EQUATIONFIT "OFFICE-0-2 WAHP COOLING COIL"
   **   ~~~   ** ...heating capacity is disproportionate (> 20% different) to total cooling capacity
   **   ~~~   ** ...heating capacity = 4000.000 W
   **   ~~~   ** ...cooling capacity = 1034.879 W
   ** Warning ** COIL:COOLING:WATERTOAIRHEATPUMP:EQUATIONFIT "OFFICE-0-3 WAHP COOLING COIL"
   **   ~~~   ** SizeWaterToAirCoil: Rated Sensible Cooling Capacity > Rated Total Cooling Capacity
   **   ~~~   ** Both of these capacity inputs have been autosized.
   **   ~~~   ** Rated Sensible Cooling Capacity at Rated Conditions = 2259.31 W
   **   ~~~   ** Rated Total Cooling Capacity at Rated Conditions    = 1064.49 W
   **   ~~~   ** See eio file for further details.
   **   ~~~   ** Check Total and Sensible Cooling Capacity coefficients in curves to ensure they are accurate.
   **   ~~~   ** Check Zone and System Sizing objects to verify sizing inputs.
   **   ~~~   ** Sizing statistics:
   **   ~~~   ** Rated entering Air Wet-Bulb Temperature = 19.000 C
   **   ~~~   ** Peak entering Air Wet-Bulb Temperature = 17.734 C
   **   ~~~   ** Entering Water Temperature used = 30.000 C
   **   ~~~   ** Design air and water flow rates = 1.0
   **   ~~~   ** Rated ratio of load-side air wet-bulb temperature to 283.15 C (Rated ratioTWB) = 1.031
   **   ~~~   ** Rated ratio of source-side inlet water temperature to 283.15 C (Rated ratioTS)  = 1.070
   **   ~~~   ** Peak ratio of load-side air wet-bulb temperature to 283.15 C (Peak ratioTWB) = 1.027
   **   ~~~   ** Peak ratio of source-side inlet water temperature to 283.15 C (Peak ratioTS)  = 1.084
   **   ~~~   ** Rated Total Cooling Capacity Modifier = 1.00000
   **   ~~~   ** Peak Design Total Cooling Capacity Modifier = 0.92568
   **   ~~~   ** Rated Sensible Cooling Capacity Modifier = 1.00000
   **   ~~~   ** Peak Design Sensible Cooling Capacity Modifier = 0.92692
   **   ~~~   ** ...Rated Total Cooling Capacity at Rated Conditions = Total Peak Design Load * Rated Total Cooling Capacity Modifier  / Peak Design Total Cooling Capacity Modifier
   **   ~~~   ** ...Rated Sensible Cooling Capacity at Rated Conditions = Peak Design Sensible Load * Rated Sensible Cooling Capacity Modifier  / Peak Design Sensible Cooling Capacity Modifier
   **   ~~~   ** Carefully review the Load Side Total, Sensible, and Latent heat transfer rates
   **   ~~~   ** ... to ensure they meet the expected manufacturers performance specifications.
   ** Warning ** COIL:HEATING:WATERTOAIRHEATPUMP:EQUATIONFIT "OFFICE-0-3 WAHP HEATING COIL"
   **   ~~~   ** ...used with COIL:COOLING:WATERTOAIRHEATPUMP:EQUATIONFIT "OFFICE-0-3 WAHP COOLING COIL"
   **   ~~~   ** ...heating capacity is disproportionate (> 20% different) to total cooling capacity
   **   ~~~   ** ...heating capacity = 4000.000 W
   **   ~~~   ** ...cooling capacity = 1064.499 W
   ** Warning ** COIL:HEATING:WATERTOAIRHEATPUMP:EQUATIONFIT "TOILET-0-0 WAHP HEATING COIL"
   **   ~~~   ** ...used with COIL:COOLING:WATERTOAIRHEATPUMP:EQUATIONFIT "TOILET-0-0 WAHP COOLING COIL"
   **   ~~~   ** ...heating capacity is disproportionate (> 20% different) to total cooling capacity
   **   ~~~   ** ...heating capacity = 4000.000 W
   **   ~~~   ** ...cooling capacity = 254.459 W
   ** Warning ** COIL:HEATING:WATERTOAIRHEATPUMP:EQUATIONFIT "STAIRS-0-0 WAHP HEATING COIL"
   **   ~~~   ** ...used with COIL:COOLING:WATERTOAIRHEATPUMP:EQUATIONFIT "STAIRS-0-0 WAHP COOLING COIL"
   **   ~~~   ** ...heating capacity is disproportionate (> 20% different) to total cooling capacity
   **   ~~~   ** ...heating capacity = 4000.000 W
   **   ~~~   ** ...cooling capacity = 464.971 W
   ** Warning ** COIL:COOLING:WATERTOAIRHEATPUMP:EQUATIONFIT "TECHNIC-0-0 WAHP COOLING COIL"
   **   ~~~   ** SizeWaterToAirCoil: Rated Sensible Cooling Capacity > Rated Total Cooling Capacity
   **   ~~~   ** Both of these capacity inputs have been autosized.
   **   ~~~   ** Rated Sensible Cooling Capacity at Rated Conditions = 588.77 W
   **   ~~~   ** Rated Total Cooling Capacity at Rated Conditions    = 345.26 W
   **   ~~~   ** See eio file for further details.
   **   ~~~   ** Check Total and Sensible Cooling Capacity coefficients in curves to ensure they are accurate.
   **   ~~~   ** Check Zone and System Sizing objects to verify sizing inputs.
   **   ~~~   ** Sizing statistics:
   **   ~~~   ** Rated entering Air Wet-Bulb Temperature = 19.000 C
   **   ~~~   ** Peak entering Air Wet-Bulb Temperature = 16.410 C
   **   ~~~   ** Entering Water Temperature used = 30.000 C
   **   ~~~   ** Design air and water flow rates = 1.0
   **   ~~~   ** Rated ratio of load-side air wet-bulb temperature to 283.15 C (Rated ratioTWB) = 1.031
   **   ~~~   ** Rated ratio of source-side inlet water temperature to 283.15 C (Rated ratioTS)  = 1.070
   **   ~~~   ** Peak ratio of load-side air wet-bulb temperature to 283.15 C (Peak ratioTWB) = 1.022
   **   ~~~   ** Peak ratio of source-side inlet water temperature to 283.15 C (Peak ratioTS)  = 1.084
   **   ~~~   ** Rated Total Cooling Capacity Modifier = 1.00000
   **   ~~~   ** Peak Design Total Cooling Capacity Modifier = 0.87384
   **   ~~~   ** Rated Sensible Cooling Capacity Modifier = 1.00000
   **   ~~~   ** Peak Design Sensible Cooling Capacity Modifier = 0.96338
   **   ~~~   ** ...Rated Total Cooling Capacity at Rated Conditions = Total Peak Design Load * Rated Total Cooling Capacity Modifier  / Peak Design Total Cooling Capacity Modifier
   **   ~~~   ** ...Rated Sensible Cooling Capacity at Rated Conditions = Peak Design Sensible Load * Rated Sensible Cooling Capacity Modifier  / Peak Design Sensible Cooling Capacity Modifier
   **   ~~~   ** Carefully review the Load Side Total, Sensible, and Latent heat transfer rates
   **   ~~~   ** ... to ensure they meet the expected manufacturers performance specifications.
   ** Warning ** COIL:HEATING:WATERTOAIRHEATPUMP:EQUATIONFIT "TECHNIC-0-0 WAHP HEATING COIL"
   **   ~~~   ** ...used with COIL:COOLING:WATERTOAIRHEATPUMP:EQUATIONFIT "TECHNIC-0-0 WAHP COOLING COIL"
   **   ~~~   ** ...heating capacity is disproportionate (> 20% different) to total cooling capacity
   **   ~~~   ** ...heating capacity = 4000.000 W
   **   ~~~   ** ...cooling capacity = 345.260 W
   ** Warning ** COIL:HEATING:WATERTOAIRHEATPUMP:EQUATIONFIT "CORRIDOR-0-0 WAHP HEATING COIL"
   **   ~~~   ** ...used with COIL:COOLING:WATERTOAIRHEATPUMP:EQUATIONFIT "CORRIDOR-0-0 WAHP COOLING COIL"
   **   ~~~   ** ...heating capacity is disproportionate (> 20% different) to total cooling capacity
   **   ~~~   ** ...heating capacity = 4000.000 W
   **   ~~~   ** ...cooling capacity = 1316.881 W
   ** Warning ** COIL:COOLING:WATERTOAIRHEATPUMP:EQUATIONFIT "OFFICE-1-0 WAHP COOLING COIL"
   **   ~~~   ** SizeWaterToAirCoil: Rated Sensible Cooling Capacity > Rated Total Cooling Capacity
   **   ~~~   ** Both of these capacity inputs have been autosized.
   **   ~~~   ** Rated Sensible Cooling Capacity at Rated Conditions = 2500.25 W
   **   ~~~   ** Rated Total Cooling Capacity at Rated Conditions    = 893.31 W
   **   ~~~   ** See eio file for further details.
   **   ~~~   ** Check Total and Sensible Cooling Capacity coefficients in curves to ensure they are accurate.
   **   ~~~   ** Check Zone and System Sizing objects to verify sizing inputs.
   **   ~~~   ** Sizing statistics:
   **   ~~~   ** Rated entering Air Wet-Bulb Temperature = 19.000 C
   **   ~~~   ** Peak entering Air Wet-Bulb Temperature = 17.734 C
   **   ~~~   ** Entering Water Temperature used = 30.000 C
   **   ~~~   ** Design air and water flow rates = 1.0
   **   ~~~   ** Rated ratio of load-side air wet-bulb temperature to 283.15 C (Rated ratioTWB) = 1.031
   **   ~~~   ** Rated ratio of source-side inlet water temperature to 283.15 C (Rated ratioTS)  = 1.070
   **   ~~~   ** Peak ratio of load-side air wet-bulb temperature to 283.15 C (Peak ratioTWB) = 1.027
   **   ~~~   ** Peak ratio of source-side inlet water temperature to 283.15 C (Peak ratioTS)  = 1.084
   **   ~~~   ** Rated Total Cooling Capacity Modifier = 1.00000
   **   ~~~   ** Peak Design Total Cooling Capacity Modifier = 0.92568
   **   ~~~   ** Rated Sensible Cooling Capacity Modifier = 1.00000
   **   ~~~   ** Peak Design Sensible Cooling Capacity Modifier = 0.99332
   **   ~~~   ** ...Rated Total Cooling Capacity at Rated Conditions = Total Peak Design Load * Rated Total Cooling Capacity Modifier  / Peak Design Total Cooling Capacity Modifier
   **   ~~~   ** ...Rated Sensible Cooling Capacity at Rated Conditions = Peak Design Sensible Load * Rated Sensible Cooling Capacity Modifier  / Peak Design Sensible Cooling Capacity Modifier
   **   ~~~   ** Carefully review the Load Side Total, Sensible, and Latent heat transfer rates
   **   ~~~   ** ... to ensure they meet the expected manufacturers performance specifications.
   ** Warning ** COIL:HEATING:WATERTOAIRHEATPUMP:EQUATIONFIT "OFFICE-1-0 WAHP HEATING COIL"
   **   ~~~   ** ...used with COIL:COOLING:WATERTOAIRHEATPUMP:EQUATIONFIT "OFFICE-1-0 WAHP COOLING COIL"
   **   ~~~   ** ...heating capacity is disproportionate (> 20% different) to total cooling capacity
   **   ~~~   ** ...heating capacity = 4000.000 W
   **   ~~~   ** ...cooling capacity = 893.318 W
   ** Warning ** COIL:COOLING:WATERTOAIRHEATPUMP:EQUATIONFIT "OFFICE-1-1 WAHP COOLING COIL"
   **   ~~~   ** SizeWaterToAirCoil: Rated Sensible Cooling Capacity > Rated Total Cooling Capacity
   **   ~~~   ** Both of these capacity inputs have been autosized.
   **   ~~~   ** Rated Sensible Cooling Capacity at Rated Conditions = 2249.51 W
   **   ~~~   ** Rated Total Cooling Capacity at Rated Conditions    = 886.67 W
   **   ~~~   ** See eio file for further details.
   **   ~~~   ** Check Total and Sensible Cooling Capacity coefficients in curves to ensure they are accurate.
   **   ~~~   ** Check Zone and System Sizing objects to verify sizing inputs.
   **   ~~~   ** Sizing statistics:
   **   ~~~   ** Rated entering Air Wet-Bulb Temperature = 19.000 C
   **   ~~~   ** Peak entering Air Wet-Bulb Temperature = 18.031 C
   **   ~~~   ** Entering Water Temperature used = 30.000 C
   **   ~~~   ** Design air and water flow rates = 1.0
   **   ~~~   ** Rated ratio of load-side air wet-bulb temperature to 283.15 C (Rated ratioTWB) = 1.031
   **   ~~~   ** Rated ratio of source-side inlet water temperature to 283.15 C (Rated ratioTS)  = 1.070
   **   ~~~   ** Peak ratio of load-side air wet-bulb temperature to 283.15 C (Peak ratioTWB) = 1.028
   **   ~~~   ** Peak ratio of source-side inlet water temperature to 283.15 C (Peak ratioTS)  = 1.084
   **   ~~~   ** Rated Total Cooling Capacity Modifier = 1.00000
   **   ~~~   ** Peak Design Total Cooling Capacity Modifier = 0.93733
   **   ~~~   ** Rated Sensible Cooling Capacity Modifier = 1.00000
   **   ~~~   ** Peak Design Sensible Cooling Capacity Modifier = 0.99683
   **   ~~~   ** ...Rated Total Cooling Capacity at Rated Conditions = Total Peak Design Load * Rated Total Cooling Capacity Modifier  / Peak Design Total Cooling Capacity Modifier
   **   ~~~   ** ...Rated Sensible Cooling Capacity at Rated Conditions = Peak Design Sensible Load * Rated Sensible Cooling Capacity Modifier  / Peak Design Sensible Cooling Capacity Modifier
   **   ~~~   ** Carefully review the Load Side Total, Sensible, and Latent heat transfer rates
   **   ~~~   ** ... to ensure they meet the expected manufacturers performance specifications.
   ** Warning ** COIL:HEATING:WATERTOAIRHEATPUMP:EQUATIONFIT "OFFICE-1-1 WAHP HEATING COIL"
   **   ~~~   ** ...used with COIL:COOLING:WATERTOAIRHEATPUMP:EQUATIONFIT "OFFICE-1-1 WAHP COOLING COIL"
   **   ~~~   ** ...heating capacity is disproportionate (> 20% different) to total cooling capacity
   **   ~~~   ** ...heating capacity = 4000.000 W
   **   ~~~   ** ...cooling capacity = 886.676 W
   ** Warning ** COIL:COOLING:WATERTOAIRHEATPUMP:EQUATIONFIT "OFFICE-1-2 WAHP COOLING COIL"
   **   ~~~   ** SizeWaterToAirCoil: Rated Sensible Cooling Capacity > Rated Total Cooling Capacity
   **   ~~~   ** Both of these capacity inputs have been autosized.
   **   ~~~   ** Rated Sensible Cooling Capacity at Rated Conditions = 2709.44 W
   **   ~~~   ** Rated Total Cooling Capacity at Rated Conditions    = 623.51 W
   **   ~~~   ** See eio file for further details.
   **   ~~~   ** Check Total and Sensible Cooling Capacity coefficients in curves to ensure they are accurate.
   **   ~~~   ** Check Zone and System Sizing objects to verify sizing inputs.
   **   ~~~   ** Sizing statistics:
   **   ~~~   ** Rated entering Air Wet-Bulb Temperature = 19.000 C
   **   ~~~   ** Peak entering Air Wet-Bulb Temperature = 17.324 C
   **   ~~~   ** Entering Water Temperature used = 30.000 C
   **   ~~~   ** Design air and water flow rates = 1.0
   **   ~~~   ** Rated ratio of load-side air wet-bulb temperature to 283.15 C (Rated ratioTWB) = 1.031
   **   ~~~   ** Rated ratio of source-side inlet water temperature to 283.15 C (Rated ratioTS)  = 1.070
   **   ~~~   ** Peak ratio of load-side air wet-bulb temperature to 283.15 C (Peak ratioTWB) = 1.025
   **   ~~~   ** Peak ratio of source-side inlet water temperature to 283.15 C (Peak ratioTS)  = 1.084
   **   ~~~   ** Rated Total Cooling Capacity Modifier = 1.00000
   **   ~~~   ** Peak Design Total Cooling Capacity Modifier = 0.90963
   **   ~~~   ** Rated Sensible Cooling Capacity Modifier = 1.00000
   **   ~~~   ** Peak Design Sensible Cooling Capacity Modifier = 0.90205
   **   ~~~   ** ...Rated Total Cooling Capacity at Rated Conditions = Total Peak Design Load * Rated Total Cooling Capacity Modifier  / Peak Design Total Cooling Capacity Modifier
   **   ~~~   ** ...Rated Sensible Cooling Capacity at Rated Conditions = Peak Design Sensible Load * Rated Sensible Cooling Capacity Modifier  / Peak Design Sensible Cooling Capacity Modifier
   **   ~~~   ** Carefully review the Load Side Total, Sensible, and Latent heat transfer rates
   **   ~~~   ** ... to ensure they meet the expected manufacturers performance specifications.
   ** Warning ** COIL:HEATING:WATERTOAIRHEATPUMP:EQUATIONFIT "OFFICE-1-2 WAHP HEATING COIL"
   **   ~~~   ** ...used with COIL:COOLING:WATERTOAIRHEATPUMP:EQUATIONFIT "OFFICE-1-2 WAHP COOLING COIL"
   **   ~~~   ** ...heating capacity is disproportionate (> 20% different) to total cooling capacity
   **   ~~~   ** ...heating capacity = 4000.000 W
   **   ~~~   ** ...cooling capacity = 623.519 W
   ** Warning ** COIL:COOLING:WATERTOAIRHEATPUMP:EQUATIONFIT "OFFICE-1-3 WAHP COOLING COIL"
   **   ~~~   ** SizeWaterToAirCoil: Rated Sensible Cooling Capacity > Rated Total Cooling Capacity
   **   ~~~   ** Both of these capacity inputs have been autosized.
   **   ~~~   ** Rated Sensible Cooling Capacity at Rated Conditions = 2886.64 W
   **   ~~~   ** Rated Total Cooling Capacity at Rated Conditions    = 782.18 W
   **   ~~~   ** See eio file for further details.
   **   ~~~   ** Check Total and Sensible Cooling Capacity coefficients in curves to ensure they are accurate.
   **   ~~~   ** Check Zone and System Sizing objects to verify sizing inputs.
   **   ~~~   ** Sizing statistics:
   **   ~~~   ** Rated entering Air Wet-Bulb Temperature = 19.000 C
   **   ~~~   ** Peak entering Air Wet-Bulb Temperature = 17.293 C
   **   ~~~   ** Entering Water Temperature used = 30.000 C
   **   ~~~   ** Design air and water flow rates = 1.0
   **   ~~~   ** Rated ratio of load-side air wet-bulb temperature to 283.15 C (Rated ratioTWB) = 1.031
   **   ~~~   ** Rated ratio of source-side inlet water temperature to 283.15 C (Rated ratioTS)  = 1.070
   **   ~~~   ** Peak ratio of load-side air wet-bulb temperature to 283.15 C (Peak ratioTWB) = 1.025
   **   ~~~   ** Peak ratio of source-side inlet water temperature to 283.15 C (Peak ratioTS)  = 1.084
   **   ~~~   ** Rated Total Cooling Capacity Modifier = 1.00000
   **   ~~~   ** Peak Design Total Cooling Capacity Modifier = 0.90842
   **   ~~~   ** Rated Sensible Cooling Capacity Modifier = 1.00000
   **   ~~~   ** Peak Design Sensible Cooling Capacity Modifier = 0.93878
   **   ~~~   ** ...Rated Total Cooling Capacity at Rated Conditions = Total Peak Design Load * Rated Total Cooling Capacity Modifier  / Peak Design Total Cooling Capacity Modifier
   **   ~~~   ** ...Rated Sensible Cooling Capacity at Rated Conditions = Peak Design Sensible Load * Rated Sensible Cooling Capacity Modifier  / Peak Design Sensible Cooling Capacity Modifier
   **   ~~~   ** Carefully review the Load Side Total, Sensible, and Latent heat transfer rates
   **   ~~~   ** ... to ensure they meet the expected manufacturers performance specifications.
   ** Warning ** COIL:HEATING:WATERTOAIRHEATPUMP:EQUATIONFIT "OFFICE-1-3 WAHP HEATING COIL"
   **   ~~~   ** ...used with COIL:COOLING:WATERTOAIRHEATPUMP:EQUATIONFIT "OFFICE-1-3 WAHP COOLING COIL"
   **   ~~~   ** ...heating capacity is disproportionate (> 20% different) to total cooling capacity
   **   ~~~   ** ...heating capacity = 4000.000 W
   **   ~~~   ** ...cooling capacity = 782.187 W
   ** Warning ** COIL:COOLING:WATERTOAIRHEATPUMP:EQUATIONFIT "TOILET-1-0 WAHP COOLING COIL"
   **   ~~~   ** SizeWaterToAirCoil: Rated Sensible Cooling Capacity > Rated Total Cooling Capacity
   **   ~~~   ** Both of these capacity inputs have been autosized.
   **   ~~~   ** Rated Sensible Cooling Capacity at Rated Conditions = 284.03 W
   **   ~~~   ** Rated Total Cooling Capacity at Rated Conditions    = 18.66 W
   **   ~~~   ** See eio file for further details.
   **   ~~~   ** Check Total and Sensible Cooling Capacity coefficients in curves to ensure they are accurate.
   **   ~~~   ** Check Zone and System Sizing objects to verify sizing inputs.
   **   ~~~   ** Sizing statistics:
   **   ~~~   ** Rated entering Air Wet-Bulb Temperature = 19.000 C
   **   ~~~   ** Peak entering Air Wet-Bulb Temperature = 17.399 C
   **   ~~~   ** Entering Water Temperature used = 30.000 C
   **   ~~~   ** Design air and water flow rates = 1.0
   **   ~~~   ** Rated ratio of load-side air wet-bulb temperature to 283.15 C (Rated ratioTWB) = 1.031
   **   ~~~   ** Rated ratio of source-side inlet water temperature to 283.15 C (Rated ratioTS)  = 1.070
   **   ~~~   ** Peak ratio of load-side air wet-bulb temperature to 283.15 C (Peak ratioTWB) = 1.026
   **   ~~~   ** Peak ratio of source-side inlet water temperature to 283.15 C (Peak ratioTS)  = 1.084
   **   ~~~   ** Rated Total Cooling Capacity Modifier = 1.00000
   **   ~~~   ** Peak Design Total Cooling Capacity Modifier = 0.91259
   **   ~~~   ** Rated Sensible Cooling Capacity Modifier = 1.00000
   **   ~~~   ** Peak Design Sensible Cooling Capacity Modifier = 0.99832
   **   ~~~   ** ...Rated Total Cooling Capacity at Rated Conditions = Total Peak Design Load * Rated Total Cooling Capacity Modifier  / Peak Design Total Cooling Capacity Modifier
   **   ~~~   ** ...Rated Sensible Cooling Capacity at Rated Conditions = Peak Design Sensible Load * Rated Sensible Cooling Capacity Modifier  / Peak Design Sensible Cooling Capacity Modifier
   **   ~~~   ** Carefully review the Load Side Total, Sensible, and Latent heat transfer rates
   **   ~~~   ** ... to ensure they meet the expected manufacturers performance specifications.
   ** Warning ** COIL:HEATING:WATERTOAIRHEATPUMP:EQUATIONFIT "TOILET-1-0 WAHP HEATING COIL"
   **   ~~~   ** ...used with COIL:COOLING:WATERTOAIRHEATPUMP:EQUATIONFIT "TOILET-1-0 WAHP COOLING COIL"
   **   ~~~   ** ...heating capacity is disproportionate (> 20% different) to total cooling capacity
   **   ~~~   ** ...heating capacity = 4000.000 W
   **   ~~~   ** ...cooling capacity = 18.661 W
   ** Warning ** COIL:COOLING:WATERTOAIRHEATPUMP:EQUATIONFIT "STAIRS-1-0 WAHP COOLING COIL"
   **   ~~~   ** SizeWaterToAirCoil: Rated Sensible Cooling Capacity > Rated Total Cooling Capacity
   **   ~~~   ** Both of these capacity inputs have been autosized.
   **   ~~~   ** Rated Sensible Cooling Capacity at Rated Conditions = 600.31 W
   **   ~~~   ** Rated Total Cooling Capacity at Rated Conditions    = 358.00 W
   **   ~~~   ** See eio file for further details.
   **   ~~~   ** Check Total and Sensible Cooling Capacity coefficients in curves to ensure they are accurate.
   **   ~~~   ** Check Zone and System Sizing objects to verify sizing inputs.
   **   ~~~   ** Sizing statistics:
   **   ~~~   ** Rated entering Air Wet-Bulb Temperature = 19.000 C
   **   ~~~   ** Peak entering Air Wet-Bulb Temperature = 17.437 C
   **   ~~~   ** Entering Water Temperature used = 30.000 C
   **   ~~~   ** Design air and water flow rates = 1.0
   **   ~~~   ** Rated ratio of load-side air wet-bulb temperature to 283.15 C (Rated ratioTWB) = 1.031
   **   ~~~   ** Rated ratio of source-side inlet water temperature to 283.15 C (Rated ratioTS)  = 1.070
   **   ~~~   ** Peak ratio of load-side air wet-bulb temperature to 283.15 C (Peak ratioTWB) = 1.026
   **   ~~~   ** Peak ratio of source-side inlet water temperature to 283.15 C (Peak ratioTS)  = 1.084
   **   ~~~   ** Rated Total Cooling Capacity Modifier = 1.00000
   **   ~~~   ** Peak Design Total Cooling Capacity Modifier = 0.91405
   **   ~~~   ** Rated Sensible Cooling Capacity Modifier = 1.00000
   **   ~~~   ** Peak Design Sensible Cooling Capacity Modifier = 0.98451
   **   ~~~   ** ...Rated Total Cooling Capacity at Rated Conditions = Total Peak Design Load * Rated Total Cooling Capacity Modifier  / Peak Design Total Cooling Capacity Modifier
   **   ~~~   ** ...Rated Sensible Cooling Capacity at Rated Conditions = Peak Design Sensible Load * Rated Sensible Cooling Capacity Modifier  / Peak Design Sensible Cooling Capacity Modifier
   **   ~~~   ** Carefully review the Load Side Total, Sensible, and Latent heat transfer rates
   **   ~~~   ** ... to ensure they meet the expected manufacturers performance specifications.
   ** Warning ** COIL:HEATING:WATERTOAIRHEATPUMP:EQUATIONFIT "STAIRS-1-0 WAHP HEATING COIL"
   **   ~~~   ** ...used with COIL:COOLING:WATERTOAIRHEATPUMP:EQUATIONFIT "STAIRS-1-0 WAHP COOLING COIL"
   **   ~~~   ** ...heating capacity is disproportionate (> 20% different) to total cooling capacity
   **   ~~~   ** ...heating capacity = 4000.000 W
   **   ~~~   ** ...cooling capacity = 358.005 W
   ** Warning ** COIL:COOLING:WATERTOAIRHEATPUMP:EQUATIONFIT "SERVICE-1-0 WAHP COOLING COIL"
   **   ~~~   ** SizeWaterToAirCoil: Rated Sensible Cooling Capacity > Rated Total Cooling Capacity
   **   ~~~   ** Both of these capacity inputs have been autosized.
   **   ~~~   ** Rated Sensible Cooling Capacity at Rated Conditions = 684.74 W
   **   ~~~   ** Rated Total Cooling Capacity at Rated Conditions    = 345.73 W
   **   ~~~   ** See eio file for further details.
   **   ~~~   ** Check Total and Sensible Cooling Capacity coefficients in curves to ensure they are accurate.
   **   ~~~   ** Check Zone and System Sizing objects to verify sizing inputs.
   **   ~~~   ** Sizing statistics:
   **   ~~~   ** Rated entering Air Wet-Bulb Temperature = 19.000 C
   **   ~~~   ** Peak entering Air Wet-Bulb Temperature = 16.253 C
   **   ~~~   ** Entering Water Temperature used = 30.000 C
   **   ~~~   ** Design air and water flow rates = 1.0
   **   ~~~   ** Rated ratio of load-side air wet-bulb temperature to 283.15 C (Rated ratioTWB) = 1.031
   **   ~~~   ** Rated ratio of source-side inlet water temperature to 283.15 C (Rated ratioTS)  = 1.070
   **   ~~~   ** Peak ratio of load-side air wet-bulb temperature to 283.15 C (Peak ratioTWB) = 1.022
   **   ~~~   ** Peak ratio of source-side inlet water temperature to 283.15 C (Peak ratioTS)  = 1.084
   **   ~~~   ** Rated Total Cooling Capacity Modifier = 1.00000
   **   ~~~   ** Peak Design Total Cooling Capacity Modifier = 0.86770
   **   ~~~   ** Rated Sensible Cooling Capacity Modifier = 1.00000
   **   ~~~   ** Peak Design Sensible Cooling Capacity Modifier = 0.97056
   **   ~~~   ** ...Rated Total Cooling Capacity at Rated Conditions = Total Peak Design Load * Rated Total Cooling Capacity Modifier  / Peak Design Total Cooling Capacity Modifier
   **   ~~~   ** ...Rated Sensible Cooling Capacity at Rated Conditions = Peak Design Sensible Load * Rated Sensible Cooling Capacity Modifier  / Peak Design Sensible Cooling Capacity Modifier
   **   ~~~   ** Carefully review the Load Side Total, Sensible, and Latent heat transfer rates
   **   ~~~   ** ... to ensure they meet the expected manufacturers performance specifications.
   ** Warning ** COIL:HEATING:WATERTOAIRHEATPUMP:EQUATIONFIT "SERVICE-1-0 WAHP HEATING COIL"
   **   ~~~   ** ...used with COIL:COOLING:WATERTOAIRHEATPUMP:EQUATIONFIT "SERVICE-1-0 WAHP COOLING COIL"
   **   ~~~   ** ...heating capacity is disproportionate (> 20% different) to total cooling capacity
   **   ~~~   ** ...heating capacity = 4000.000 W
   **   ~~~   ** ...cooling capacity = 345.733 W
   ** Warning ** COIL:COOLING:WATERTOAIRHEATPUMP:EQUATIONFIT "CORRIDOR-1-0 WAHP COOLING COIL"
   **   ~~~   ** SizeWaterToAirCoil: Rated Sensible Cooling Capacity > Rated Total Cooling Capacity
   **   ~~~   ** Both of these capacity inputs have been autosized.
   **   ~~~   ** Rated Sensible Cooling Capacity at Rated Conditions = 1743.34 W
   **   ~~~   ** Rated Total Cooling Capacity at Rated Conditions    = 434.89 W
   **   ~~~   ** See eio file for further details.
   **   ~~~   ** Check Total and Sensible Cooling Capacity coefficients in curves to ensure they are accurate.
   **   ~~~   ** Check Zone and System Sizing objects to verify sizing inputs.
   **   ~~~   ** Sizing statistics:
   **   ~~~   ** Rated entering Air Wet-Bulb Temperature = 19.000 C
   **   ~~~   ** Peak entering Air Wet-Bulb Temperature = 16.787 C
   **   ~~~   ** Entering Water Temperature used = 30.000 C
   **   ~~~   ** Design air and water flow rates = 1.0
   **   ~~~   ** Rated ratio of load-side air wet-bulb temperature to 283.15 C (Rated ratioTWB) = 1.031
   **   ~~~   ** Rated ratio of source-side inlet water temperature to 283.15 C (Rated ratioTS)  = 1.070
   **   ~~~   ** Peak ratio of load-side air wet-bulb temperature to 283.15 C (Peak ratioTWB) = 1.023
   **   ~~~   ** Peak ratio of source-side inlet water temperature to 283.15 C (Peak ratioTS)  = 1.084
   **   ~~~   ** Rated Total Cooling Capacity Modifier = 1.00000
   **   ~~~   ** Peak Design Total Cooling Capacity Modifier = 0.88860
   **   ~~~   ** Rated Sensible Cooling Capacity Modifier = 1.00000
   **   ~~~   ** Peak Design Sensible Cooling Capacity Modifier = 0.98352
   **   ~~~   ** ...Rated Total Cooling Capacity at Rated Conditions = Total Peak Design Load * Rated Total Cooling Capacity Modifier  / Peak Design Total Cooling Capacity Modifier
   **   ~~~   ** ...Rated Sensible Cooling Capacity at Rated Conditions = Peak Design Sensible Load * Rated Sensible Cooling Capacity Modifier  / Peak Design Sensible Cooling Capacity Modifier
   **   ~~~   ** Carefully review the Load Side Total, Sensible, and Latent heat transfer rates
   **   ~~~   ** ... to ensure they meet the expected manufacturers performance specifications.
   ** Warning ** COIL:HEATING:WATERTOAIRHEATPUMP:EQUATIONFIT "CORRIDOR-1-0 WAHP HEATING COIL"
   **   ~~~   ** ...used with COIL:COOLING:WATERTOAIRHEATPUMP:EQUATIONFIT "CORRIDOR-1-0 WAHP COOLING COIL"
   **   ~~~   ** ...heating capacity is disproportionate (> 20% different) to total cooling capacity
   **   ~~~   ** ...heating capacity = 4000.000 W
   **   ~~~   ** ...cooling capacity = 434.897 W
   ** Warning ** COIL:COOLING:WATERTOAIRHEATPUMP:EQUATIONFIT "OFFICE-2-0 WAHP COOLING COIL"
   **   ~~~   ** SizeWaterToAirCoil: Rated Sensible Cooling Capacity > Rated Total Cooling Capacity
   **   ~~~   ** Both of these capacity inputs have been autosized.
   **   ~~~   ** Rated Sensible Cooling Capacity at Rated Conditions = 2338.19 W
   **   ~~~   ** Rated Total Cooling Capacity at Rated Conditions    = 1269.83 W
   **   ~~~   ** See eio file for further details.
   **   ~~~   ** Check Total and Sensible Cooling Capacity coefficients in curves to ensure they are accurate.
   **   ~~~   ** Check Zone and System Sizing objects to verify sizing inputs.
   **   ~~~   ** Sizing statistics:
   **   ~~~   ** Rated entering Air Wet-Bulb Temperature = 19.000 C
   **   ~~~   ** Peak entering Air Wet-Bulb Temperature = 17.943 C
   **   ~~~   ** Entering Water Temperature used = 30.000 C
   **   ~~~   ** Design air and water flow rates = 1.0
   **   ~~~   ** Rated ratio of load-side air wet-bulb temperature to 283.15 C (Rated ratioTWB) = 1.031
   **   ~~~   ** Rated ratio of source-side inlet water temperature to 283.15 C (Rated ratioTS)  = 1.070
   **   ~~~   ** Peak ratio of load-side air wet-bulb temperature to 283.15 C (Peak ratioTWB) = 1.028
   **   ~~~   ** Peak ratio of source-side inlet water temperature to 283.15 C (Peak ratioTS)  = 1.084
   **   ~~~   ** Rated Total Cooling Capacity Modifier = 1.00000
   **   ~~~   ** Peak Design Total Cooling Capacity Modifier = 0.93388
   **   ~~~   ** Rated Sensible Cooling Capacity Modifier = 1.00000
   **   ~~~   ** Peak Design Sensible Cooling Capacity Modifier = 0.99101
   **   ~~~   ** ...Rated Total Cooling Capacity at Rated Conditions = Total Peak Design Load * Rated Total Cooling Capacity Modifier  / Peak Design Total Cooling Capacity Modifier
   **   ~~~   ** ...Rated Sensible Cooling Capacity at Rated Conditions = Peak Design Sensible Load * Rated Sensible Cooling Capacity Modifier  / Peak Design Sensible Cooling Capacity Modifier
   **   ~~~   ** Carefully review the Load Side Total, Sensible, and Latent heat transfer rates
   **   ~~~   ** ... to ensure they meet the expected manufacturers performance specifications.
   ** Warning ** COIL:HEATING:WATERTOAIRHEATPUMP:EQUATIONFIT "OFFICE-2-0 WAHP HEATING COIL"
   **   ~~~   ** ...used with COIL:COOLING:WATERTOAIRHEATPUMP:EQUATIONFIT "OFFICE-2-0 WAHP COOLING COIL"
   **   ~~~   ** ...heating capacity is disproportionate (> 20% different) to total cooling capacity
   **   ~~~   ** ...heating capacity = 4000.000 W
   **   ~~~   ** ...cooling capacity = 1269.831 W
   ** Warning ** COIL:COOLING:WATERTOAIRHEATPUMP:EQUATIONFIT "OFFICE-2-1 WAHP COOLING COIL"
   **   ~~~   ** SizeWaterToAirCoil: Rated Sensible Cooling Capacity > Rated Total Cooling Capacity
   **   ~~~   ** Both of these capacity inputs have been autosized.
   **   ~~~   ** Rated Sensible Cooling Capacity at Rated Conditions = 1457.66 W
   **   ~~~   ** Rated Total Cooling Capacity at Rated Conditions    = 898.11 W
   **   ~~~   ** See eio file for further details.
   **   ~~~   ** Check Total and Sensible Cooling Capacity coefficients in curves to ensure they are accurate.
   **   ~~~   ** Check Zone and System Sizing objects to verify sizing inputs.
   **   ~~~   ** Sizing statistics:
   **   ~~~   ** Rated entering Air Wet-Bulb Temperature = 19.000 C
   **   ~~~   ** Peak entering Air Wet-Bulb Temperature = 18.245 C
   **   ~~~   ** Entering Water Temperature used = 30.000 C
   **   ~~~   ** Design air and water flow rates = 1.0
   **   ~~~   ** Rated ratio of load-side air wet-bulb temperature to 283.15 C (Rated ratioTWB) = 1.031
   **   ~~~   ** Rated ratio of source-side inlet water temperature to 283.15 C (Rated ratioTS)  = 1.070
   **   ~~~   ** Peak ratio of load-side air wet-bulb temperature to 283.15 C (Peak ratioTWB) = 1.029
   **   ~~~   ** Peak ratio of source-side inlet water temperature to 283.15 C (Peak ratioTS)  = 1.084
   **   ~~~   ** Rated Total Cooling Capacity Modifier = 1.00000
   **   ~~~   ** Peak Design Total Cooling Capacity Modifier = 0.94571
   **   ~~~   ** Rated Sensible Cooling Capacity Modifier = 1.00000
   **   ~~~   ** Peak Design Sensible Cooling Capacity Modifier = 0.99577
   **   ~~~   ** ...Rated Total Cooling Capacity at Rated Conditions = Total Peak Design Load * Rated Total Cooling Capacity Modifier  / Peak Design Total Cooling Capacity Modifier
   **   ~~~   ** ...Rated Sensible Cooling Capacity at Rated Conditions = Peak Design Sensible Load * Rated Sensible Cooling Capacity Modifier  / Peak Design Sensible Cooling Capacity Modifier
   **   ~~~   ** Carefully review the Load Side Total, Sensible, and Latent heat transfer rates
   **   ~~~   ** ... to ensure they meet the expected manufacturers performance specifications.
   ** Warning ** COIL:HEATING:WATERTOAIRHEATPUMP:EQUATIONFIT "OFFICE-2-1 WAHP HEATING COIL"
   **   ~~~   ** ...used with COIL:COOLING:WATERTOAIRHEATPUMP:EQUATIONFIT "OFFICE-2-1 WAHP COOLING COIL"
   **   ~~~   ** ...heating capacity is disproportionate (> 20% different) to total cooling capacity
   **   ~~~   ** ...heating capacity = 4000.000 W
   **   ~~~   ** ...cooling capacity = 898.111 W
   ** Warning ** COIL:COOLING:WATERTOAIRHEATPUMP:EQUATIONFIT "OFFICE-2-4 WAHP COOLING COIL"
   **   ~~~   ** SizeWaterToAirCoil: Rated Sensible Cooling Capacity > Rated Total Cooling Capacity
   **   ~~~   ** Both of these capacity inputs have been autosized.
   **   ~~~   ** Rated Sensible Cooling Capacity at Rated Conditions = 1510.95 W
   **   ~~~   ** Rated Total Cooling Capacity at Rated Conditions    = 1323.49 W
   **   ~~~   ** See eio file for further details.
   **   ~~~   ** Check Total and Sensible Cooling Capacity coefficients in curves to ensure they are accurate.
   **   ~~~   ** Check Zone and System Sizing objects to verify sizing inputs.
   **   ~~~   ** Sizing statistics:
   **   ~~~   ** Rated entering Air Wet-Bulb Temperature = 19.000 C
   **   ~~~   ** Peak entering Air Wet-Bulb Temperature = 18.380 C
   **   ~~~   ** Entering Water Temperature used = 30.000 C
   **   ~~~   ** Design air and water flow rates = 1.0
   **   ~~~   ** Rated ratio of load-side air wet-bulb temperature to 283.15 C (Rated ratioTWB) = 1.031
   **   ~~~   ** Rated ratio of source-side inlet water temperature to 283.15 C (Rated ratioTS)  = 1.070
   **   ~~~   ** Peak ratio of load-side air wet-bulb temperature to 283.15 C (Peak ratioTWB) = 1.029
   **   ~~~   ** Peak ratio of source-side inlet water temperature to 283.15 C (Peak ratioTS)  = 1.084
   **   ~~~   ** Rated Total Cooling Capacity Modifier = 1.00000
   **   ~~~   ** Peak Design Total Cooling Capacity Modifier = 0.95097
   **   ~~~   ** Rated Sensible Cooling Capacity Modifier = 1.00000
   **   ~~~   ** Peak Design Sensible Cooling Capacity Modifier = 0.99372
   **   ~~~   ** ...Rated Total Cooling Capacity at Rated Conditions = Total Peak Design Load * Rated Total Cooling Capacity Modifier  / Peak Design Total Cooling Capacity Modifier
   **   ~~~   ** ...Rated Sensible Cooling Capacity at Rated Conditions = Peak Design Sensible Load * Rated Sensible Cooling Capacity Modifier  / Peak Design Sensible Cooling Capacity Modifier
   **   ~~~   ** Carefully review the Load Side Total, Sensible, and Latent heat transfer rates
   **   ~~~   ** ... to ensure they meet the expected manufacturers performance specifications.
   ** Warning ** COIL:HEATING:WATERTOAIRHEATPUMP:EQUATIONFIT "OFFICE-2-4 WAHP HEATING COIL"
   **   ~~~   ** ...used with COIL:COOLING:WATERTOAIRHEATPUMP:EQUATIONFIT "OFFICE-2-4 WAHP COOLING COIL"
   **   ~~~   ** ...heating capacity is disproportionate (> 20% different) to total cooling capacity
   **   ~~~   ** ...heating capacity = 4000.000 W
   **   ~~~   ** ...cooling capacity = 1323.497 W
   ** Warning ** COIL:COOLING:WATERTOAIRHEATPUMP:EQUATIONFIT "OFFICE-2-2 WAHP COOLING COIL"
   **   ~~~   ** SizeWaterToAirCoil: Rated Sensible Cooling Capacity > Rated Total Cooling Capacity
   **   ~~~   ** Both of these capacity inputs have been autosized.
   **   ~~~   ** Rated Sensible Cooling Capacity at Rated Conditions = 1759.39 W
   **   ~~~   ** Rated Total Cooling Capacity at Rated Conditions    = 585.92 W
   **   ~~~   ** See eio file for further details.
   **   ~~~   ** Check Total and Sensible Cooling Capacity coefficients in curves to ensure they are accurate.
   **   ~~~   ** Check Zone and System Sizing objects to verify sizing inputs.
   **   ~~~   ** Sizing statistics:
   **   ~~~   ** Rated entering Air Wet-Bulb Temperature = 19.000 C
   **   ~~~   ** Peak entering Air Wet-Bulb Temperature = 17.431 C
   **   ~~~   ** Entering Water Temperature used = 30.000 C
   **   ~~~   ** Design air and water flow rates = 1.0
   **   ~~~   ** Rated ratio of load-side air wet-bulb temperature to 283.15 C (Rated ratioTWB) = 1.031
   **   ~~~   ** Rated ratio of source-side inlet water temperature to 283.15 C (Rated ratioTS)  = 1.070
   **   ~~~   ** Peak ratio of load-side air wet-bulb temperature to 283.15 C (Peak ratioTWB) = 1.026
   **   ~~~   ** Peak ratio of source-side inlet water temperature to 283.15 C (Peak ratioTS)  = 1.084
   **   ~~~   ** Rated Total Cooling Capacity Modifier = 1.00000
   **   ~~~   ** Peak Design Total Cooling Capacity Modifier = 0.91382
   **   ~~~   ** Rated Sensible Cooling Capacity Modifier = 1.00000
   **   ~~~   ** Peak Design Sensible Cooling Capacity Modifier = 0.89552
   **   ~~~   ** ...Rated Total Cooling Capacity at Rated Conditions = Total Peak Design Load * Rated Total Cooling Capacity Modifier  / Peak Design Total Cooling Capacity Modifier
   **   ~~~   ** ...Rated Sensible Cooling Capacity at Rated Conditions = Peak Design Sensible Load * Rated Sensible Cooling Capacity Modifier  / Peak Design Sensible Cooling Capacity Modifier
   **   ~~~   ** Carefully review the Load Side Total, Sensible, and Latent heat transfer rates
   **   ~~~   ** ... to ensure they meet the expected manufacturers performance specifications.
   ** Warning ** COIL:HEATING:WATERTOAIRHEATPUMP:EQUATIONFIT "OFFICE-2-2 WAHP HEATING COIL"
   **   ~~~   ** ...used with COIL:COOLING:WATERTOAIRHEATPUMP:EQUATIONFIT "OFFICE-2-2 WAHP COOLING COIL"
   **   ~~~   ** ...heating capacity is disproportionate (> 20% different) to total cooling capacity
   **   ~~~   ** ...heating capacity = 4000.000 W
   **   ~~~   ** ...cooling capacity = 585.921 W
   ** Warning ** COIL:COOLING:WATERTOAIRHEATPUMP:EQUATIONFIT "OFFICE-2-3 WAHP COOLING COIL"
   **   ~~~   ** SizeWaterToAirCoil: Rated Sensible Cooling Capacity > Rated Total Cooling Capacity
   **   ~~~   ** Both of these capacity inputs have been autosized.
   **   ~~~   ** Rated Sensible Cooling Capacity at Rated Conditions = 2615.54 W
   **   ~~~   ** Rated Total Cooling Capacity at Rated Conditions    = 1003.33 W
   **   ~~~   ** See eio file for further details.
   **   ~~~   ** Check Total and Sensible Cooling Capacity coefficients in curves to ensure they are accurate.
   **   ~~~   ** Check Zone and System Sizing objects to verify sizing inputs.
   **   ~~~   ** Sizing statistics:
   **   ~~~   ** Rated entering Air Wet-Bulb Temperature = 19.000 C
   **   ~~~   ** Peak entering Air Wet-Bulb Temperature = 17.505 C
   **   ~~~   ** Entering Water Temperature used = 30.000 C
   **   ~~~   ** Design air and water flow rates = 1.0
   **   ~~~   ** Rated ratio of load-side air wet-bulb temperature to 283.15 C (Rated ratioTWB) = 1.031
   **   ~~~   ** Rated ratio of source-side inlet water temperature to 283.15 C (Rated ratioTS)  = 1.070
   **   ~~~   ** Peak ratio of load-side air wet-bulb temperature to 283.15 C (Peak ratioTWB) = 1.026
   **   ~~~   ** Peak ratio of source-side inlet water temperature to 283.15 C (Peak ratioTS)  = 1.084
   **   ~~~   ** Rated Total Cooling Capacity Modifier = 1.00000
   **   ~~~   ** Peak Design Total Cooling Capacity Modifier = 0.91674
   **   ~~~   ** Rated Sensible Cooling Capacity Modifier = 1.00000
   **   ~~~   ** Peak Design Sensible Cooling Capacity Modifier = 0.93448
   **   ~~~   ** ...Rated Total Cooling Capacity at Rated Conditions = Total Peak Design Load * Rated Total Cooling Capacity Modifier  / Peak Design Total Cooling Capacity Modifier
   **   ~~~   ** ...Rated Sensible Cooling Capacity at Rated Conditions = Peak Design Sensible Load * Rated Sensible Cooling Capacity Modifier  / Peak Design Sensible Cooling Capacity Modifier
   **   ~~~   ** Carefully review the Load Side Total, Sensible, and Latent heat transfer rates
   **   ~~~   ** ... to ensure they meet the expected manufacturers performance specifications.
   ** Warning ** COIL:HEATING:WATERTOAIRHEATPUMP:EQUATIONFIT "OFFICE-2-3 WAHP HEATING COIL"
   **   ~~~   ** ...used with COIL:COOLING:WATERTOAIRHEATPUMP:EQUATIONFIT "OFFICE-2-3 WAHP COOLING COIL"
   **   ~~~   ** ...heating capacity is disproportionate (> 20% different) to total cooling capacity
   **   ~~~   ** ...heating capacity = 4000.000 W
   **   ~~~   ** ...cooling capacity = 1003.335 W
   ** Warning ** COIL:COOLING:WATERTOAIRHEATPUMP:EQUATIONFIT "TOILET-2-0 WAHP COOLING COIL"
   **   ~~~   ** SizeWaterToAirCoil: Rated Sensible Cooling Capacity > Rated Total Cooling Capacity
   **   ~~~   ** Both of these capacity inputs have been autosized.
   **   ~~~   ** Rated Sensible Cooling Capacity at Rated Conditions = 271.05 W
   **   ~~~   ** Rated Total Cooling Capacity at Rated Conditions    = 257.00 W
   **   ~~~   ** See eio file for further details.
   **   ~~~   ** Check Total and Sensible Cooling Capacity coefficients in curves to ensure they are accurate.
   **   ~~~   ** Check Zone and System Sizing objects to verify sizing inputs.
   **   ~~~   ** Sizing statistics:
   **   ~~~   ** Rated entering Air Wet-Bulb Temperature = 19.000 C
   **   ~~~   ** Peak entering Air Wet-Bulb Temperature = 17.716 C
   **   ~~~   ** Entering Water Temperature used = 30.000 C
   **   ~~~   ** Design air and water flow rates = 1.0
   **   ~~~   ** Rated ratio of load-side air wet-bulb temperature to 283.15 C (Rated ratioTWB) = 1.031
   **   ~~~   ** Rated ratio of source-side inlet water temperature to 283.15 C (Rated ratioTS)  = 1.070
   **   ~~~   ** Peak ratio of load-side air wet-bulb temperature to 283.15 C (Peak ratioTWB) = 1.027
   **   ~~~   ** Peak ratio of source-side inlet water temperature to 283.15 C (Peak ratioTS)  = 1.084
   **   ~~~   ** Rated Total Cooling Capacity Modifier = 1.00000
   **   ~~~   ** Peak Design Total Cooling Capacity Modifier = 0.92500
   **   ~~~   ** Rated Sensible Cooling Capacity Modifier = 1.00000
   **   ~~~   ** Peak Design Sensible Cooling Capacity Modifier = 0.98979
   **   ~~~   ** ...Rated Total Cooling Capacity at Rated Conditions = Total Peak Design Load * Rated Total Cooling Capacity Modifier  / Peak Design Total Cooling Capacity Modifier
   **   ~~~   ** ...Rated Sensible Cooling Capacity at Rated Conditions = Peak Design Sensible Load * Rated Sensible Cooling Capacity Modifier  / Peak Design Sensible Cooling Capacity Modifier
   **   ~~~   ** Carefully review the Load Side Total, Sensible, and Latent heat transfer rates
   **   ~~~   ** ... to ensure they meet the expected manufacturers performance specifications.
   ** Warning ** COIL:HEATING:WATERTOAIRHEATPUMP:EQUATIONFIT "TOILET-2-0 WAHP HEATING COIL"
   **   ~~~   ** ...used with COIL:COOLING:WATERTOAIRHEATPUMP:EQUATIONFIT "TOILET-2-0 WAHP COOLING COIL"
   **   ~~~   ** ...heating capacity is disproportionate (> 20% different) to total cooling capacity
   **   ~~~   ** ...heating capacity = 4000.000 W
   **   ~~~   ** ...cooling capacity = 257.004 W
   ** Warning ** COIL:HEATING:WATERTOAIRHEATPUMP:EQUATIONFIT "STAIRS-2-0 WAHP HEATING COIL"
   **   ~~~   ** ...used with COIL:COOLING:WATERTOAIRHEATPUMP:EQUATIONFIT "STAIRS-2-0 WAHP COOLING COIL"
   **   ~~~   ** ...heating capacity is disproportionate (> 20% different) to total cooling capacity
   **   ~~~   ** ...heating capacity = 4000.000 W
   **   ~~~   ** ...cooling capacity = 696.276 W
   ** Warning ** COIL:COOLING:WATERTOAIRHEATPUMP:EQUATIONFIT "TECHNIC-2-0 WAHP COOLING COIL"
   **   ~~~   ** SizeWaterToAirCoil: Rated Sensible Cooling Capacity > Rated Total Cooling Capacity
   **   ~~~   ** Both of these capacity inputs have been autosized.
   **   ~~~   ** Rated Sensible Cooling Capacity at Rated Conditions = 367.69 W
   **   ~~~   ** Rated Total Cooling Capacity at Rated Conditions    = 301.17 W
   **   ~~~   ** See eio file for further details.
   **   ~~~   ** Check Total and Sensible Cooling Capacity coefficients in curves to ensure they are accurate.
   **   ~~~   ** Check Zone and System Sizing objects to verify sizing inputs.
   **   ~~~   ** Sizing statistics:
   **   ~~~   ** Rated entering Air Wet-Bulb Temperature = 19.000 C
   **   ~~~   ** Peak entering Air Wet-Bulb Temperature = 16.699 C
   **   ~~~   ** Entering Water Temperature used = 30.000 C
   **   ~~~   ** Design air and water flow rates = 1.0
   **   ~~~   ** Rated ratio of load-side air wet-bulb temperature to 283.15 C (Rated ratioTWB) = 1.031
   **   ~~~   ** Rated ratio of source-side inlet water temperature to 283.15 C (Rated ratioTS)  = 1.070
   **   ~~~   ** Peak ratio of load-side air wet-bulb temperature to 283.15 C (Peak ratioTWB) = 1.023
   **   ~~~   ** Peak ratio of source-side inlet water temperature to 283.15 C (Peak ratioTS)  = 1.084
   **   ~~~   ** Rated Total Cooling Capacity Modifier = 1.00000
   **   ~~~   ** Peak Design Total Cooling Capacity Modifier = 0.88516
   **   ~~~   ** Rated Sensible Cooling Capacity Modifier = 1.00000
   **   ~~~   ** Peak Design Sensible Cooling Capacity Modifier = 0.94987
   **   ~~~   ** ...Rated Total Cooling Capacity at Rated Conditions = Total Peak Design Load * Rated Total Cooling Capacity Modifier  / Peak Design Total Cooling Capacity Modifier
   **   ~~~   ** ...Rated Sensible Cooling Capacity at Rated Conditions = Peak Design Sensible Load * Rated Sensible Cooling Capacity Modifier  / Peak Design Sensible Cooling Capacity Modifier
   **   ~~~   ** Carefully review the Load Side Total, Sensible, and Latent heat transfer rates
   **   ~~~   ** ... to ensure they meet the expected manufacturers performance specifications.
   ** Warning ** COIL:HEATING:WATERTOAIRHEATPUMP:EQUATIONFIT "TECHNIC-2-0 WAHP HEATING COIL"
   **   ~~~   ** ...used with COIL:COOLING:WATERTOAIRHEATPUMP:EQUATIONFIT "TECHNIC-2-0 WAHP COOLING COIL"
   **   ~~~   ** ...heating capacity is disproportionate (> 20% different) to total cooling capacity
   **   ~~~   ** ...heating capacity = 4000.000 W
   **   ~~~   ** ...cooling capacity = 301.176 W
   ** Warning ** COIL:COOLING:WATERTOAIRHEATPUMP:EQUATIONFIT "CORRIDOR-2-0 WAHP COOLING COIL"
   **   ~~~   ** SizeWaterToAirCoil: Rated Sensible Cooling Capacity > Rated Total Cooling Capacity
   **   ~~~   ** Both of these capacity inputs have been autosized.
   **   ~~~   ** Rated Sensible Cooling Capacity at Rated Conditions = 1392.85 W
   **   ~~~   ** Rated Total Cooling Capacity at Rated Conditions    = 1019.85 W
   **   ~~~   ** See eio file for further details.
   **   ~~~   ** Check Total and Sensible Cooling Capacity coefficients in curves to ensure they are accurate.
   **   ~~~   ** Check Zone and System Sizing objects to verify sizing inputs.
   **   ~~~   ** Sizing statistics:
   **   ~~~   ** Rated entering Air Wet-Bulb Temperature = 19.000 C
   **   ~~~   ** Peak entering Air Wet-Bulb Temperature = 16.746 C
   **   ~~~   ** Entering Water Temperature used = 30.000 C
   **   ~~~   ** Design air and water flow rates = 1.0
   **   ~~~   ** Rated ratio of load-side air wet-bulb temperature to 283.15 C (Rated ratioTWB) = 1.031
   **   ~~~   ** Rated ratio of source-side inlet water temperature to 283.15 C (Rated ratioTS)  = 1.070
   **   ~~~   ** Peak ratio of load-side air wet-bulb temperature to 283.15 C (Peak ratioTWB) = 1.023
   **   ~~~   ** Peak ratio of source-side inlet water temperature to 283.15 C (Peak ratioTS)  = 1.084
   **   ~~~   ** Rated Total Cooling Capacity Modifier = 1.00000
   **   ~~~   ** Peak Design Total Cooling Capacity Modifier = 0.88700
   **   ~~~   ** Rated Sensible Cooling Capacity Modifier = 1.00000
   **   ~~~   ** Peak Design Sensible Cooling Capacity Modifier = 0.96529
   **   ~~~   ** ...Rated Total Cooling Capacity at Rated Conditions = Total Peak Design Load * Rated Total Cooling Capacity Modifier  / Peak Design Total Cooling Capacity Modifier
   **   ~~~   ** ...Rated Sensible Cooling Capacity at Rated Conditions = Peak Design Sensible Load * Rated Sensible Cooling Capacity Modifier  / Peak Design Sensible Cooling Capacity Modifier
   **   ~~~   ** Carefully review the Load Side Total, Sensible, and Latent heat transfer rates
   **   ~~~   ** ... to ensure they meet the expected manufacturers performance specifications.
   ** Warning ** COIL:HEATING:WATERTOAIRHEATPUMP:EQUATIONFIT "CORRIDOR-2-0 WAHP HEATING COIL"
   **   ~~~   ** ...used with COIL:COOLING:WATERTOAIRHEATPUMP:EQUATIONFIT "CORRIDOR-2-0 WAHP COOLING COIL"
   **   ~~~   ** ...heating capacity is disproportionate (> 20% different) to total cooling capacity
   **   ~~~   ** ...heating capacity = 4000.000 W
   **   ~~~   ** ...cooling capacity = 1019.857 W
   ************* Testing Individual Branch Integrity
   ************* All Branches passed integrity testing
   ************* Testing Individual Supply Air Path Integrity
   ************* All Supply Air Paths passed integrity testing
   ************* Testing Individual Return Air Path Integrity
   ************* All Return Air Paths passed integrity testing
   ************* No node connection errors were found.
   ************* Beginning Simulation
   ** Warning ** GetDensityGlycol: Temperature is out of range (too low) for fluid [WATER] density **
   **   ~~~   ** ..Called From:NodeReportingCalc:MAINTOWER CNDW OUTLET,Temperature=[-32.20], supplied data range=[0.00,100.00]
   **   ~~~   **  Environment=RUNPERIODNOVEMBER, at Simulation time=11/01 00:00 - 00:10
   ** Warning ** GetSpecificHeatGlycol: Temperature is out of range (too low) for fluid [WATER] specific heat supplied values **
   **   ~~~   ** ..Called From:PlantLoopSolver::UpdateAnyLoopDemandAlterations,Temperature=[-32.49], supplied data range=[0.00,125.00]
   **   ~~~   **  Environment=RUNPERIODNOVEMBER, at Simulation time=11/01 07:00 - 07:10
   ************* Simulation Error Summary *************
   ** Warning ** The following Report Variables were requested but not generated -- check.rdd file
   **   ~~~   ** Either the IDF did not contain these elements, the variable name is misspelled,
   **   ~~~   ** or the requested variable is an advanced output which requires Output : Diagnostics, DisplayAdvancedReportVariables;
   ************* Key=*, VarName=BOILER ELECTRICITY ENERGY, Frequency=
   ************* Key=*, VarName=CHILLER ELECTRICITY ENERGY, Frequency=
   *************
   ************* ===== Recurring Error Summary =====
   ************* The following recurring error messages occurred.
   *************
   *************  ** Warning ** Actual air mass flow rate is smaller than 25% of water-to-air heat pump coil rated air flow rate.
   *************  **   ~~~   **   This error occurred 531177 total times;
   *************  **   ~~~   **   during Warmup 94821 times;
   *************  **   ~~~   **   during Sizing 0 times.
   *************  **   ~~~   **   Max=6.301337E-002  Min=1.598198E-005
   *************
   *************  ** Warning ** Plant loop falling below lower temperature limit, PlantLoop="ONLYWATERLOOP MIXED WATER LOOP"
   *************  **   ~~~   **   This error occurred 45939 total times;
   *************  **   ~~~   **   during Warmup 11379 times;
   *************  **   ~~~   **   during Sizing 0 times.
   *************  **   ~~~   **   Min=-37.952324
   *************
   *************  ** Warning ** GetDensityGlycol: Temperature out of range (too low) for fluid [WATER] density **
   *************  **   ~~~   **   This error occurred 4038600 total times;
   *************  **   ~~~   **   during Warmup 0 times;
   *************  **   ~~~   **   during Sizing 0 times.
   *************  **   ~~~   **   Max=-3.341764E-004 {C}  Min=-38.145977 {C}
   *************
   *************  ** Warning ** GetSpecificHeatGlycol: Temperature out of range (too low) for fluid [WATER] specific heat **
   *************  **   ~~~   **   This error occurred 400676 total times;
   *************  **   ~~~   **   during Warmup 0 times;
   *************  **   ~~~   **   during Sizing 0 times.
   *************  **   ~~~   **   Max=-3.341764E-004 {C}  Min=-38.145977 {C}
   *************
   *************
   ************* ===== Final Error Summary =====
   ************* The following error categories occurred.  Consider correcting or noting.
   ************* Nominally Unused Constructions
   ************* ..The nominally unused constructions warning is provided to alert you to potential conditions that can cause
   ************* ..extra time during simulation. Each construction is calculated by the algorithm indicated in the HeatBalanceAlgorithm
   ************* ..object. You may remove the constructions indicated (when you use the DisplayExtraWarnings option).
   *************
   ************* EnergyPlus Warmup Error Summary. During Warmup: 0 Warning; 0 Severe Errors.
   ************* EnergyPlus Sizing Error Summary. During Sizing: 40 Warning; 0 Severe Errors.
   ************* EnergyPlus Completed Successfully-- 5016481 Warning; 0 Severe Errors; Elapsed Time=00hr 01min  9.76sec
