Program Version,EnergyPlus, Version 22.2.0-c249759bad, YMD=2023.04.03 12:48,
   ** Warning ** Output:PreprocessorMessage="ExpandObjects" has the following Warning condition:
   **   ~~~   ** Cannot find Energy+.idd as specified in Energy+.ini.
   ** Warning ** Output:PreprocessorMessage="ExpandObjects" has the following Warning conditions:
   **   ~~~   ** Since the Energy+.IDD file cannot be read no range or choice checking was
   **   ~~~   ** performed.
   ************* Beginning Zone Sizing Calculations
   ** Warning ** Site:GroundTemperature:BuildingSurface: Some values fall outside the range of 15-25C.
   **   ~~~   ** These values may be inappropriate.  Please consult the Input Output Reference for more details.
   ** Warning ** ProcessScheduleInput: Schedule:Compact="GENERIC.ALWAYS1", Schedule Type Limits Name="ANYNUMBER" not found -- will not be validated
   ** Warning ** ProcessScheduleInput: Schedule:Compact="GENERIC.ALWAYS01", Schedule Type Limits Name="ANYNUMBER" not found -- will not be validated
   ** Warning ** ProcessScheduleInput: Schedule:Compact="OFFICE.COOLINGSETPOINT", Schedule Type Limits Name="ANYNUMBER" not found -- will not be validated
   ** Warning ** ProcessScheduleInput: Schedule:Compact="OFFICE.ELECTRICEQUIPMENT", Schedule Type Limits Name="ANYNUMBER" not found -- will not be validated
   ** Warning ** ProcessScheduleInput: Schedule:Compact="OFFICE.LIGHTS", Schedule Type Limits Name="ANYNUMBER" not found -- will not be validated
   ** Warning ** ProcessScheduleInput: Schedule:Compact="OFFICE.PEOPLE", Schedule Type Limits Name="ANYNUMBER" not found -- will not be validated
   ** Warning ** ProcessScheduleInput: Schedule:Compact="OFFICE.ACTIVITY", Schedule Type Limits Name="ANYNUMBER" not found -- will not be validated
   ** Warning ** ProcessScheduleInput: Schedule:Compact="STAIRS.COOLINGSETPOINT", Schedule Type Limits Name="ANYNUMBER" not found -- will not be validated
   ** Warning ** ProcessScheduleInput: Schedule:Compact="STAIRS.ELECTRICEQUIPMENT", Schedule Type Limits Name="ANYNUMBER" not found -- will not be validated
   ** Warning ** ProcessScheduleInput: Schedule:Compact="STAIRS.LIGHTS", Schedule Type Limits Name="ANYNUMBER" not found -- will not be validated
   ** Warning ** ProcessScheduleInput: Schedule:Compact="STAIRS.PEOPLE", Schedule Type Limits Name="ANYNUMBER" not found -- will not be validated
   ** Warning ** ProcessScheduleInput: Schedule:Compact="STAIRS.ACTIVITY", Schedule Type Limits Name="ANYNUMBER" not found -- will not be validated
   ** Warning ** ProcessScheduleInput: Schedule:Compact="TOILET.HEATINGSETPOINT", Schedule Type Limits Name="ANYNUMBER" not found -- will not be validated
   ** Warning ** ProcessScheduleInput: Schedule:Compact="TOILET.COOLINGSETPOINT", Schedule Type Limits Name="ANYNUMBER" not found -- will not be validated
   ** Warning ** ProcessScheduleInput: Schedule:Compact="TOILET.ELECTRICEQUIPMENT", Schedule Type Limits Name="ANYNUMBER" not found -- will not be validated
   ** Warning ** ProcessScheduleInput: Schedule:Compact="TOILET.LIGHTS", Schedule Type Limits Name="ANYNUMBER" not found -- will not be validated
   ** Warning ** ProcessScheduleInput: Schedule:Compact="TOILET.PEOPLE", Schedule Type Limits Name="ANYNUMBER" not found -- will not be validated
   ** Warning ** ProcessScheduleInput: Schedule:Compact="TOILET.ACTIVITY", Schedule Type Limits Name="ANYNUMBER" not found -- will not be validated
   ** Warning ** ProcessScheduleInput: Schedule:Compact="SERVICE.HEATINGSETPOINT", Schedule Type Limits Name="ANYNUMBER" not found -- will not be validated
   ** Warning ** ProcessScheduleInput: Schedule:Compact="SERVICE.COOLINGSETPOINT", Schedule Type Limits Name="ANYNUMBER" not found -- will not be validated
   ** Warning ** ProcessScheduleInput: Schedule:Compact="SERVICE.ELECTRICEQUIPMENT", Schedule Type Limits Name="ANYNUMBER" not found -- will not be validated
   ** Warning ** ProcessScheduleInput: Schedule:Compact="SERVICE.LIGHTS", Schedule Type Limits Name="ANYNUMBER" not found -- will not be validated
   ** Warning ** ProcessScheduleInput: Schedule:Compact="SERVICE.PEOPLE", Schedule Type Limits Name="ANYNUMBER" not found -- will not be validated
   ** Warning ** ProcessScheduleInput: Schedule:Compact="SERVICE.ACTIVITY", Schedule Type Limits Name="ANYNUMBER" not found -- will not be validated
   ** Warning ** ProcessScheduleInput: Schedule:Compact="CORRIDOR.COOLINGSETPOINT", Schedule Type Limits Name="ANYNUMBER" not found -- will not be validated
   ** Warning ** ProcessScheduleInput: Schedule:Compact="CORRIDOR.ELECTRICEQUIPMENT", Schedule Type Limits Name="ANYNUMBER" not found -- will not be validated
   ** Warning ** ProcessScheduleInput: Schedule:Compact="CORRIDOR.LIGHTS", Schedule Type Limits Name="ANYNUMBER" not found -- will not be validated
   ** Warning ** ProcessScheduleInput: Schedule:Compact="CORRIDOR.PEOPLE", Schedule Type Limits Name="ANYNUMBER" not found -- will not be validated
   ** Warning ** ProcessScheduleInput: Schedule:Compact="CORRIDOR.ACTIVITY", Schedule Type Limits Name="ANYNUMBER" not found -- will not be validated
   ** Warning ** ProcessScheduleInput: Schedule:Compact="TECHNIC.HEATINGSETPOINT", Schedule Type Limits Name="ANYNUMBER" not found -- will not be validated
   ** Warning ** ProcessScheduleInput: Schedule:Compact="TECHNIC.COOLINGSETPOINT", Schedule Type Limits Name="ANYNUMBER" not found -- will not be validated
   ** Warning ** ProcessScheduleInput: Schedule:Compact="TECHNIC.ELECTRICEQUIPMENT", Schedule Type Limits Name="ANYNUMBER" not found -- will not be validated
   ** Warning ** ProcessScheduleInput: Schedule:Compact="TECHNIC.LIGHTS", Schedule Type Limits Name="ANYNUMBER" not found -- will not be validated
   ** Warning ** ProcessScheduleInput: Schedule:Compact="TECHNIC.PEOPLE", Schedule Type Limits Name="ANYNUMBER" not found -- will not be validated
   ** Warning ** ProcessScheduleInput: Schedule:Compact="TECHNIC.ACTIVITY", Schedule Type Limits Name="ANYNUMBER" not found -- will not be validated
   ** Warning ** ProcessScheduleInput: Schedule:Compact="OFFICE.HEATINGSETPOINT", Schedule Type Limits Name="ANYNUMBER" not found -- will not be validated
   ** Warning ** ProcessScheduleInput: Schedule:Compact="CORRIDOR.HEATINGSETPOINT", Schedule Type Limits Name="ANYNUMBER" not found -- will not be validated
   ** Warning ** ProcessScheduleInput: Schedule:Compact="STAIRS.HEATINGSETPOINT", Schedule Type Limits Name="ANYNUMBER" not found -- will not be validated
   ** Warning ** CheckUsedConstructions: There are 4 nominally unused constructions in input.
   **   ~~~   ** Each Unused construction is shown.
   ************* Construction=WALLEXTERNAL
   ************* Construction=FLOORGROUND
   ************* Construction=ROOF
   ************* Construction=WINDOW
   ************* Beginning Plant Sizing Calculations
   ** Warning ** COIL:COOLING:WATERTOAIRHEATPUMP:EQUATIONFIT "OFFICE-0-0 WAHP COOLING COIL"
   **   ~~~   ** SizeWaterToAirCoil: Rated Sensible Cooling Capacity > Rated Total Cooling Capacity
   **   ~~~   ** Both of these capacity inputs have been autosized.
   **   ~~~   ** Rated Sensible Cooling Capacity at Rated Conditions = 2905.96 W
   **   ~~~   ** Rated Total Cooling Capacity at Rated Conditions    = 1703.03 W
   **   ~~~   ** See eio file for further details.
   **   ~~~   ** Check Total and Sensible Cooling Capacity coefficients in curves to ensure they are accurate.
   **   ~~~   ** Check Zone and System Sizing objects to verify sizing inputs.
   **   ~~~   ** Sizing statistics:
   **   ~~~   ** Rated entering Air Wet-Bulb Temperature = 19.000 C
   **   ~~~   ** Peak entering Air Wet-Bulb Temperature = 17.808 C
   **   ~~~   ** Entering Water Temperature used = 30.000 C
   **   ~~~   ** Design air and water flow rates = 1.0
   **   ~~~   ** Rated ratio of load-side air wet-bulb temperature to 283.15 C (Rated ratioTWB) = 1.031
   **   ~~~   ** Rated ratio of source-side inlet water temperature to 283.15 C (Rated ratioTS)  = 1.070
   **   ~~~   ** Peak ratio of load-side air wet-bulb temperature to 283.15 C (Peak ratioTWB) = 1.027
   **   ~~~   ** Peak ratio of source-side inlet water temperature to 283.15 C (Peak ratioTS)  = 1.084
   **   ~~~   ** Rated Total Cooling Capacity Modifier = 1.00000
   **   ~~~   ** Peak Design Total Cooling Capacity Modifier = 0.92858
   **   ~~~   ** Rated Sensible Cooling Capacity Modifier = 1.00000
   **   ~~~   ** Peak Design Sensible Cooling Capacity Modifier = 0.98879
   **   ~~~   ** ...Rated Total Cooling Capacity at Rated Conditions = Total Peak Design Load * Rated Total Cooling Capacity Modifier  / Peak Design Total Cooling Capacity Modifier
   **   ~~~   ** ...Rated Sensible Cooling Capacity at Rated Conditions = Peak Design Sensible Load * Rated Sensible Cooling Capacity Modifier  / Peak Design Sensible Cooling Capacity Modifier
   **   ~~~   ** Carefully review the Load Side Total, Sensible, and Latent heat transfer rates
   **   ~~~   ** ... to ensure they meet the expected manufacturers performance specifications.
   ** Warning ** COIL:HEATING:WATERTOAIRHEATPUMP:EQUATIONFIT "OFFICE-0-0 WAHP HEATING COIL"
   **   ~~~   ** ...used with COIL:COOLING:WATERTOAIRHEATPUMP:EQUATIONFIT "OFFICE-0-0 WAHP COOLING COIL"
   **   ~~~   ** ...heating capacity is disproportionate (> 20% different) to total cooling capacity
   **   ~~~   ** ...heating capacity = 4000.000 W
   **   ~~~   ** ...cooling capacity = 1703.031 W
   ** Warning ** COIL:COOLING:WATERTOAIRHEATPUMP:EQUATIONFIT "OFFICE-0-1 WAHP COOLING COIL"
   **   ~~~   ** SizeWaterToAirCoil: Rated Sensible Cooling Capacity > Rated Total Cooling Capacity
   **   ~~~   ** Both of these capacity inputs have been autosized.
   **   ~~~   ** Rated Sensible Cooling Capacity at Rated Conditions = 1866.22 W
   **   ~~~   ** Rated Total Cooling Capacity at Rated Conditions    = 1562.18 W
   **   ~~~   ** See eio file for further details.
   **   ~~~   ** Check Total and Sensible Cooling Capacity coefficients in curves to ensure they are accurate.
   **   ~~~   ** Check Zone and System Sizing objects to verify sizing inputs.
   **   ~~~   ** Sizing statistics:
   **   ~~~   ** Rated entering Air Wet-Bulb Temperature = 19.000 C
   **   ~~~   ** Peak entering Air Wet-Bulb Temperature = 18.328 C
   **   ~~~   ** Entering Water Temperature used = 30.000 C
   **   ~~~   ** Design air and water flow rates = 1.0
   **   ~~~   ** Rated ratio of load-side air wet-bulb temperature to 283.15 C (Rated ratioTWB) = 1.031
   **   ~~~   ** Rated ratio of source-side inlet water temperature to 283.15 C (Rated ratioTS)  = 1.070
   **   ~~~   ** Peak ratio of load-side air wet-bulb temperature to 283.15 C (Peak ratioTWB) = 1.029
   **   ~~~   ** Peak ratio of source-side inlet water temperature to 283.15 C (Peak ratioTS)  = 1.084
   **   ~~~   ** Rated Total Cooling Capacity Modifier = 1.00000
   **   ~~~   ** Peak Design Total Cooling Capacity Modifier = 0.94896
   **   ~~~   ** Rated Sensible Cooling Capacity Modifier = 1.00000
   **   ~~~   ** Peak Design Sensible Cooling Capacity Modifier = 0.99571
   **   ~~~   ** ...Rated Total Cooling Capacity at Rated Conditions = Total Peak Design Load * Rated Total Cooling Capacity Modifier  / Peak Design Total Cooling Capacity Modifier
   **   ~~~   ** ...Rated Sensible Cooling Capacity at Rated Conditions = Peak Design Sensible Load * Rated Sensible Cooling Capacity Modifier  / Peak Design Sensible Cooling Capacity Modifier
   **   ~~~   ** Carefully review the Load Side Total, Sensible, and Latent heat transfer rates
   **   ~~~   ** ... to ensure they meet the expected manufacturers performance specifications.
   ** Warning ** COIL:HEATING:WATERTOAIRHEATPUMP:EQUATIONFIT "OFFICE-0-1 WAHP HEATING COIL"
   **   ~~~   ** ...used with COIL:COOLING:WATERTOAIRHEATPUMP:EQUATIONFIT "OFFICE-0-1 WAHP COOLING COIL"
   **   ~~~   ** ...heating capacity is disproportionate (> 20% different) to total cooling capacity
   **   ~~~   ** ...heating capacity = 4000.000 W
   **   ~~~   ** ...cooling capacity = 1562.186 W
   ** Warning ** COIL:COOLING:WATERTOAIRHEATPUMP:EQUATIONFIT "OFFICE-0-2 WAHP COOLING COIL"
   **   ~~~   ** SizeWaterToAirCoil: Rated Sensible Cooling Capacity > Rated Total Cooling Capacity
   **   ~~~   ** Both of these capacity inputs have been autosized.
   **   ~~~   ** Rated Sensible Cooling Capacity at Rated Conditions = 2171.05 W
   **   ~~~   ** Rated Total Cooling Capacity at Rated Conditions    = 1200.10 W
   **   ~~~   ** See eio file for further details.
   **   ~~~   ** Check Total and Sensible Cooling Capacity coefficients in curves to ensure they are accurate.
   **   ~~~   ** Check Zone and System Sizing objects to verify sizing inputs.
   **   ~~~   ** Sizing statistics:
   **   ~~~   ** Rated entering Air Wet-Bulb Temperature = 19.000 C
   **   ~~~   ** Peak entering Air Wet-Bulb Temperature = 17.513 C
   **   ~~~   ** Entering Water Temperature used = 30.000 C
   **   ~~~   ** Design air and water flow rates = 1.0
   **   ~~~   ** Rated ratio of load-side air wet-bulb temperature to 283.15 C (Rated ratioTWB) = 1.031
   **   ~~~   ** Rated ratio of source-side inlet water temperature to 283.15 C (Rated ratioTS)  = 1.070
   **   ~~~   ** Peak ratio of load-side air wet-bulb temperature to 283.15 C (Peak ratioTWB) = 1.026
   **   ~~~   ** Peak ratio of source-side inlet water temperature to 283.15 C (Peak ratioTS)  = 1.084
   **   ~~~   ** Rated Total Cooling Capacity Modifier = 1.00000
   **   ~~~   ** Peak Design Total Cooling Capacity Modifier = 0.91702
   **   ~~~   ** Rated Sensible Cooling Capacity Modifier = 1.00000
   **   ~~~   ** Peak Design Sensible Cooling Capacity Modifier = 0.88995
   **   ~~~   ** ...Rated Total Cooling Capacity at Rated Conditions = Total Peak Design Load * Rated Total Cooling Capacity Modifier  / Peak Design Total Cooling Capacity Modifier
   **   ~~~   ** ...Rated Sensible Cooling Capacity at Rated Conditions = Peak Design Sensible Load * Rated Sensible Cooling Capacity Modifier  / Peak Design Sensible Cooling Capacity Modifier
   **   ~~~   ** Carefully review the Load Side Total, Sensible, and Latent heat transfer rates
   **   ~~~   ** ... to ensure they meet the expected manufacturers performance specifications.
   ** Warning ** COIL:HEATING:WATERTOAIRHEATPUMP:EQUATIONFIT "OFFICE-0-2 WAHP HEATING COIL"
   **   ~~~   ** ...used with COIL:COOLING:WATERTOAIRHEATPUMP:EQUATIONFIT "OFFICE-0-2 WAHP COOLING COIL"
   **   ~~~   ** ...heating capacity is disproportionate (> 20% different) to total cooling capacity
   **   ~~~   ** ...heating capacity = 4000.000 W
   **   ~~~   ** ...cooling capacity = 1200.106 W
   ** Warning ** COIL:COOLING:WATERTOAIRHEATPUMP:EQUATIONFIT "OFFICE-0-3 WAHP COOLING COIL"
   **   ~~~   ** SizeWaterToAirCoil: Rated Sensible Cooling Capacity > Rated Total Cooling Capacity
   **   ~~~   ** Both of these capacity inputs have been autosized.
   **   ~~~   ** Rated Sensible Cooling Capacity at Rated Conditions = 2362.27 W
   **   ~~~   ** Rated Total Cooling Capacity at Rated Conditions    = 1209.52 W
   **   ~~~   ** See eio file for further details.
   **   ~~~   ** Check Total and Sensible Cooling Capacity coefficients in curves to ensure they are accurate.
   **   ~~~   ** Check Zone and System Sizing objects to verify sizing inputs.
   **   ~~~   ** Sizing statistics:
   **   ~~~   ** Rated entering Air Wet-Bulb Temperature = 19.000 C
   **   ~~~   ** Peak entering Air Wet-Bulb Temperature = 17.556 C
   **   ~~~   ** Entering Water Temperature used = 30.000 C
   **   ~~~   ** Design air and water flow rates = 1.0
   **   ~~~   ** Rated ratio of load-side air wet-bulb temperature to 283.15 C (Rated ratioTWB) = 1.031
   **   ~~~   ** Rated ratio of source-side inlet water temperature to 283.15 C (Rated ratioTS)  = 1.070
   **   ~~~   ** Peak ratio of load-side air wet-bulb temperature to 283.15 C (Peak ratioTWB) = 1.026
   **   ~~~   ** Peak ratio of source-side inlet water temperature to 283.15 C (Peak ratioTS)  = 1.084
   **   ~~~   ** Rated Total Cooling Capacity Modifier = 1.00000
   **   ~~~   ** Peak Design Total Cooling Capacity Modifier = 0.91872
   **   ~~~   ** Rated Sensible Cooling Capacity Modifier = 1.00000
   **   ~~~   ** Peak Design Sensible Cooling Capacity Modifier = 0.92886
   **   ~~~   ** ...Rated Total Cooling Capacity at Rated Conditions = Total Peak Design Load * Rated Total Cooling Capacity Modifier  / Peak Design Total Cooling Capacity Modifier
   **   ~~~   ** ...Rated Sensible Cooling Capacity at Rated Conditions = Peak Design Sensible Load * Rated Sensible Cooling Capacity Modifier  / Peak Design Sensible Cooling Capacity Modifier
   **   ~~~   ** Carefully review the Load Side Total, Sensible, and Latent heat transfer rates
   **   ~~~   ** ... to ensure they meet the expected manufacturers performance specifications.
   ** Warning ** COIL:HEATING:WATERTOAIRHEATPUMP:EQUATIONFIT "OFFICE-0-3 WAHP HEATING COIL"
   **   ~~~   ** ...used with COIL:COOLING:WATERTOAIRHEATPUMP:EQUATIONFIT "OFFICE-0-3 WAHP COOLING COIL"
   **   ~~~   ** ...heating capacity is disproportionate (> 20% different) to total cooling capacity
   **   ~~~   ** ...heating capacity = 4000.000 W
   **   ~~~   ** ...cooling capacity = 1209.522 W
   ** Warning ** COIL:HEATING:WATERTOAIRHEATPUMP:EQUATIONFIT "TOILET-0-0 WAHP HEATING COIL"
   **   ~~~   ** ...used with COIL:COOLING:WATERTOAIRHEATPUMP:EQUATIONFIT "TOILET-0-0 WAHP COOLING COIL"
   **   ~~~   ** ...heating capacity is disproportionate (> 20% different) to total cooling capacity
   **   ~~~   ** ...heating capacity = 4000.000 W
   **   ~~~   ** ...cooling capacity = 232.669 W
   ** Warning ** COIL:HEATING:WATERTOAIRHEATPUMP:EQUATIONFIT "STAIRS-0-0 WAHP HEATING COIL"
   **   ~~~   ** ...used with COIL:COOLING:WATERTOAIRHEATPUMP:EQUATIONFIT "STAIRS-0-0 WAHP COOLING COIL"
   **   ~~~   ** ...heating capacity is disproportionate (> 20% different) to total cooling capacity
   **   ~~~   ** ...heating capacity = 4000.000 W
   **   ~~~   ** ...cooling capacity = 508.764 W
   ** Warning ** COIL:COOLING:WATERTOAIRHEATPUMP:EQUATIONFIT "TECHNIC-0-0 WAHP COOLING COIL"
   **   ~~~   ** SizeWaterToAirCoil: Rated Sensible Cooling Capacity > Rated Total Cooling Capacity
   **   ~~~   ** Both of these capacity inputs have been autosized.
   **   ~~~   ** Rated Sensible Cooling Capacity at Rated Conditions = 619.15 W
   **   ~~~   ** Rated Total Cooling Capacity at Rated Conditions    = 372.70 W
   **   ~~~   ** See eio file for further details.
   **   ~~~   ** Check Total and Sensible Cooling Capacity coefficients in curves to ensure they are accurate.
   **   ~~~   ** Check Zone and System Sizing objects to verify sizing inputs.
   **   ~~~   ** Sizing statistics:
   **   ~~~   ** Rated entering Air Wet-Bulb Temperature = 19.000 C
   **   ~~~   ** Peak entering Air Wet-Bulb Temperature = 16.364 C
   **   ~~~   ** Entering Water Temperature used = 30.000 C
   **   ~~~   ** Design air and water flow rates = 1.0
   **   ~~~   ** Rated ratio of load-side air wet-bulb temperature to 283.15 C (Rated ratioTWB) = 1.031
   **   ~~~   ** Rated ratio of source-side inlet water temperature to 283.15 C (Rated ratioTS)  = 1.070
   **   ~~~   ** Peak ratio of load-side air wet-bulb temperature to 283.15 C (Peak ratioTWB) = 1.022
   **   ~~~   ** Peak ratio of source-side inlet water temperature to 283.15 C (Peak ratioTS)  = 1.084
   **   ~~~   ** Rated Total Cooling Capacity Modifier = 1.00000
   **   ~~~   ** Peak Design Total Cooling Capacity Modifier = 0.87204
   **   ~~~   ** Rated Sensible Cooling Capacity Modifier = 1.00000
   **   ~~~   ** Peak Design Sensible Cooling Capacity Modifier = 0.96552
   **   ~~~   ** ...Rated Total Cooling Capacity at Rated Conditions = Total Peak Design Load * Rated Total Cooling Capacity Modifier  / Peak Design Total Cooling Capacity Modifier
   **   ~~~   ** ...Rated Sensible Cooling Capacity at Rated Conditions = Peak Design Sensible Load * Rated Sensible Cooling Capacity Modifier  / Peak Design Sensible Cooling Capacity Modifier
   **   ~~~   ** Carefully review the Load Side Total, Sensible, and Latent heat transfer rates
   **   ~~~   ** ... to ensure they meet the expected manufacturers performance specifications.
   ** Warning ** COIL:HEATING:WATERTOAIRHEATPUMP:EQUATIONFIT "TECHNIC-0-0 WAHP HEATING COIL"
   **   ~~~   ** ...used with COIL:COOLING:WATERTOAIRHEATPUMP:EQUATIONFIT "TECHNIC-0-0 WAHP COOLING COIL"
   **   ~~~   ** ...heating capacity is disproportionate (> 20% different) to total cooling capacity
   **   ~~~   ** ...heating capacity = 4000.000 W
   **   ~~~   ** ...cooling capacity = 372.708 W
   ** Warning ** COIL:HEATING:WATERTOAIRHEATPUMP:EQUATIONFIT "CORRIDOR-0-0 WAHP HEATING COIL"
   **   ~~~   ** ...used with COIL:COOLING:WATERTOAIRHEATPUMP:EQUATIONFIT "CORRIDOR-0-0 WAHP COOLING COIL"
   **   ~~~   ** ...heating capacity is disproportionate (> 20% different) to total cooling capacity
   **   ~~~   ** ...heating capacity = 4000.000 W
   **   ~~~   ** ...cooling capacity = 1389.115 W
   ** Warning ** COIL:COOLING:WATERTOAIRHEATPUMP:EQUATIONFIT "OFFICE-1-0 WAHP COOLING COIL"
   **   ~~~   ** SizeWaterToAirCoil: Rated Sensible Cooling Capacity > Rated Total Cooling Capacity
   **   ~~~   ** Both of these capacity inputs have been autosized.
   **   ~~~   ** Rated Sensible Cooling Capacity at Rated Conditions = 2509.73 W
   **   ~~~   ** Rated Total Cooling Capacity at Rated Conditions    = 985.34 W
   **   ~~~   ** See eio file for further details.
   **   ~~~   ** Check Total and Sensible Cooling Capacity coefficients in curves to ensure they are accurate.
   **   ~~~   ** Check Zone and System Sizing objects to verify sizing inputs.
   **   ~~~   ** Sizing statistics:
   **   ~~~   ** Rated entering Air Wet-Bulb Temperature = 19.000 C
   **   ~~~   ** Peak entering Air Wet-Bulb Temperature = 17.584 C
   **   ~~~   ** Entering Water Temperature used = 30.000 C
   **   ~~~   ** Design air and water flow rates = 1.0
   **   ~~~   ** Rated ratio of load-side air wet-bulb temperature to 283.15 C (Rated ratioTWB) = 1.031
   **   ~~~   ** Rated ratio of source-side inlet water temperature to 283.15 C (Rated ratioTS)  = 1.070
   **   ~~~   ** Peak ratio of load-side air wet-bulb temperature to 283.15 C (Peak ratioTWB) = 1.026
   **   ~~~   ** Peak ratio of source-side inlet water temperature to 283.15 C (Peak ratioTS)  = 1.084
   **   ~~~   ** Rated Total Cooling Capacity Modifier = 1.00000
   **   ~~~   ** Peak Design Total Cooling Capacity Modifier = 0.91983
   **   ~~~   ** Rated Sensible Cooling Capacity Modifier = 1.00000
   **   ~~~   ** Peak Design Sensible Cooling Capacity Modifier = 0.99193
   **   ~~~   ** ...Rated Total Cooling Capacity at Rated Conditions = Total Peak Design Load * Rated Total Cooling Capacity Modifier  / Peak Design Total Cooling Capacity Modifier
   **   ~~~   ** ...Rated Sensible Cooling Capacity at Rated Conditions = Peak Design Sensible Load * Rated Sensible Cooling Capacity Modifier  / Peak Design Sensible Cooling Capacity Modifier
   **   ~~~   ** Carefully review the Load Side Total, Sensible, and Latent heat transfer rates
   **   ~~~   ** ... to ensure they meet the expected manufacturers performance specifications.
   ** Warning ** COIL:HEATING:WATERTOAIRHEATPUMP:EQUATIONFIT "OFFICE-1-0 WAHP HEATING COIL"
   **   ~~~   ** ...used with COIL:COOLING:WATERTOAIRHEATPUMP:EQUATIONFIT "OFFICE-1-0 WAHP COOLING COIL"
   **   ~~~   ** ...heating capacity is disproportionate (> 20% different) to total cooling capacity
   **   ~~~   ** ...heating capacity = 4000.000 W
   **   ~~~   ** ...cooling capacity = 985.345 W
   ** Warning ** COIL:COOLING:WATERTOAIRHEATPUMP:EQUATIONFIT "OFFICE-1-1 WAHP COOLING COIL"
   **   ~~~   ** SizeWaterToAirCoil: Rated Sensible Cooling Capacity > Rated Total Cooling Capacity
   **   ~~~   ** Both of these capacity inputs have been autosized.
   **   ~~~   ** Rated Sensible Cooling Capacity at Rated Conditions = 2251.99 W
   **   ~~~   ** Rated Total Cooling Capacity at Rated Conditions    = 1015.09 W
   **   ~~~   ** See eio file for further details.
   **   ~~~   ** Check Total and Sensible Cooling Capacity coefficients in curves to ensure they are accurate.
   **   ~~~   ** Check Zone and System Sizing objects to verify sizing inputs.
   **   ~~~   ** Sizing statistics:
   **   ~~~   ** Rated entering Air Wet-Bulb Temperature = 19.000 C
   **   ~~~   ** Peak entering Air Wet-Bulb Temperature = 17.867 C
   **   ~~~   ** Entering Water Temperature used = 30.000 C
   **   ~~~   ** Design air and water flow rates = 1.0
   **   ~~~   ** Rated ratio of load-side air wet-bulb temperature to 283.15 C (Rated ratioTWB) = 1.031
   **   ~~~   ** Rated ratio of source-side inlet water temperature to 283.15 C (Rated ratioTS)  = 1.070
   **   ~~~   ** Peak ratio of load-side air wet-bulb temperature to 283.15 C (Peak ratioTWB) = 1.027
   **   ~~~   ** Peak ratio of source-side inlet water temperature to 283.15 C (Peak ratioTS)  = 1.084
   **   ~~~   ** Rated Total Cooling Capacity Modifier = 1.00000
   **   ~~~   ** Peak Design Total Cooling Capacity Modifier = 0.93088
   **   ~~~   ** Rated Sensible Cooling Capacity Modifier = 1.00000
   **   ~~~   ** Peak Design Sensible Cooling Capacity Modifier = 0.99475
   **   ~~~   ** ...Rated Total Cooling Capacity at Rated Conditions = Total Peak Design Load * Rated Total Cooling Capacity Modifier  / Peak Design Total Cooling Capacity Modifier
   **   ~~~   ** ...Rated Sensible Cooling Capacity at Rated Conditions = Peak Design Sensible Load * Rated Sensible Cooling Capacity Modifier  / Peak Design Sensible Cooling Capacity Modifier
   **   ~~~   ** Carefully review the Load Side Total, Sensible, and Latent heat transfer rates
   **   ~~~   ** ... to ensure they meet the expected manufacturers performance specifications.
   ** Warning ** COIL:HEATING:WATERTOAIRHEATPUMP:EQUATIONFIT "OFFICE-1-1 WAHP HEATING COIL"
   **   ~~~   ** ...used with COIL:COOLING:WATERTOAIRHEATPUMP:EQUATIONFIT "OFFICE-1-1 WAHP COOLING COIL"
   **   ~~~   ** ...heating capacity is disproportionate (> 20% different) to total cooling capacity
   **   ~~~   ** ...heating capacity = 4000.000 W
   **   ~~~   ** ...cooling capacity = 1015.095 W
   ** Warning ** COIL:COOLING:WATERTOAIRHEATPUMP:EQUATIONFIT "OFFICE-1-2 WAHP COOLING COIL"
   **   ~~~   ** SizeWaterToAirCoil: Rated Sensible Cooling Capacity > Rated Total Cooling Capacity
   **   ~~~   ** Both of these capacity inputs have been autosized.
   **   ~~~   ** Rated Sensible Cooling Capacity at Rated Conditions = 2764.55 W
   **   ~~~   ** Rated Total Cooling Capacity at Rated Conditions    = 769.97 W
   **   ~~~   ** See eio file for further details.
   **   ~~~   ** Check Total and Sensible Cooling Capacity coefficients in curves to ensure they are accurate.
   **   ~~~   ** Check Zone and System Sizing objects to verify sizing inputs.
   **   ~~~   ** Sizing statistics:
   **   ~~~   ** Rated entering Air Wet-Bulb Temperature = 19.000 C
   **   ~~~   ** Peak entering Air Wet-Bulb Temperature = 17.220 C
   **   ~~~   ** Entering Water Temperature used = 30.000 C
   **   ~~~   ** Design air and water flow rates = 1.0
   **   ~~~   ** Rated ratio of load-side air wet-bulb temperature to 283.15 C (Rated ratioTWB) = 1.031
   **   ~~~   ** Rated ratio of source-side inlet water temperature to 283.15 C (Rated ratioTS)  = 1.070
   **   ~~~   ** Peak ratio of load-side air wet-bulb temperature to 283.15 C (Peak ratioTWB) = 1.025
   **   ~~~   ** Peak ratio of source-side inlet water temperature to 283.15 C (Peak ratioTS)  = 1.084
   **   ~~~   ** Rated Total Cooling Capacity Modifier = 1.00000
   **   ~~~   ** Peak Design Total Cooling Capacity Modifier = 0.90557
   **   ~~~   ** Rated Sensible Cooling Capacity Modifier = 1.00000
   **   ~~~   ** Peak Design Sensible Cooling Capacity Modifier = 0.90945
   **   ~~~   ** ...Rated Total Cooling Capacity at Rated Conditions = Total Peak Design Load * Rated Total Cooling Capacity Modifier  / Peak Design Total Cooling Capacity Modifier
   **   ~~~   ** ...Rated Sensible Cooling Capacity at Rated Conditions = Peak Design Sensible Load * Rated Sensible Cooling Capacity Modifier  / Peak Design Sensible Cooling Capacity Modifier
   **   ~~~   ** Carefully review the Load Side Total, Sensible, and Latent heat transfer rates
   **   ~~~   ** ... to ensure they meet the expected manufacturers performance specifications.
   ** Warning ** COIL:HEATING:WATERTOAIRHEATPUMP:EQUATIONFIT "OFFICE-1-2 WAHP HEATING COIL"
   **   ~~~   ** ...used with COIL:COOLING:WATERTOAIRHEATPUMP:EQUATIONFIT "OFFICE-1-2 WAHP COOLING COIL"
   **   ~~~   ** ...heating capacity is disproportionate (> 20% different) to total cooling capacity
   **   ~~~   ** ...heating capacity = 4000.000 W
   **   ~~~   ** ...cooling capacity = 769.977 W
   ** Warning ** COIL:COOLING:WATERTOAIRHEATPUMP:EQUATIONFIT "OFFICE-1-3 WAHP COOLING COIL"
   **   ~~~   ** SizeWaterToAirCoil: Rated Sensible Cooling Capacity > Rated Total Cooling Capacity
   **   ~~~   ** Both of these capacity inputs have been autosized.
   **   ~~~   ** Rated Sensible Cooling Capacity at Rated Conditions = 2921.86 W
   **   ~~~   ** Rated Total Cooling Capacity at Rated Conditions    = 916.05 W
   **   ~~~   ** See eio file for further details.
   **   ~~~   ** Check Total and Sensible Cooling Capacity coefficients in curves to ensure they are accurate.
   **   ~~~   ** Check Zone and System Sizing objects to verify sizing inputs.
   **   ~~~   ** Sizing statistics:
   **   ~~~   ** Rated entering Air Wet-Bulb Temperature = 19.000 C
   **   ~~~   ** Peak entering Air Wet-Bulb Temperature = 17.173 C
   **   ~~~   ** Entering Water Temperature used = 30.000 C
   **   ~~~   ** Design air and water flow rates = 1.0
   **   ~~~   ** Rated ratio of load-side air wet-bulb temperature to 283.15 C (Rated ratioTWB) = 1.031
   **   ~~~   ** Rated ratio of source-side inlet water temperature to 283.15 C (Rated ratioTS)  = 1.070
   **   ~~~   ** Peak ratio of load-side air wet-bulb temperature to 283.15 C (Peak ratioTWB) = 1.025
   **   ~~~   ** Peak ratio of source-side inlet water temperature to 283.15 C (Peak ratioTS)  = 1.084
   **   ~~~   ** Rated Total Cooling Capacity Modifier = 1.00000
   **   ~~~   ** Peak Design Total Cooling Capacity Modifier = 0.90371
   **   ~~~   ** Rated Sensible Cooling Capacity Modifier = 1.00000
   **   ~~~   ** Peak Design Sensible Cooling Capacity Modifier = 0.94308
   **   ~~~   ** ...Rated Total Cooling Capacity at Rated Conditions = Total Peak Design Load * Rated Total Cooling Capacity Modifier  / Peak Design Total Cooling Capacity Modifier
   **   ~~~   ** ...Rated Sensible Cooling Capacity at Rated Conditions = Peak Design Sensible Load * Rated Sensible Cooling Capacity Modifier  / Peak Design Sensible Cooling Capacity Modifier
   **   ~~~   ** Carefully review the Load Side Total, Sensible, and Latent heat transfer rates
   **   ~~~   ** ... to ensure they meet the expected manufacturers performance specifications.
   ** Warning ** COIL:HEATING:WATERTOAIRHEATPUMP:EQUATIONFIT "OFFICE-1-3 WAHP HEATING COIL"
   **   ~~~   ** ...used with COIL:COOLING:WATERTOAIRHEATPUMP:EQUATIONFIT "OFFICE-1-3 WAHP COOLING COIL"
   **   ~~~   ** ...heating capacity is disproportionate (> 20% different) to total cooling capacity
   **   ~~~   ** ...heating capacity = 4000.000 W
   **   ~~~   ** ...cooling capacity = 916.050 W
   ** Warning ** COIL:COOLING:WATERTOAIRHEATPUMP:EQUATIONFIT "TOILET-1-0 WAHP COOLING COIL"
   **   ~~~   ** SizeWaterToAirCoil: Rated Sensible Cooling Capacity > Rated Total Cooling Capacity
   **   ~~~   ** Both of these capacity inputs have been autosized.
   **   ~~~   ** Rated Sensible Cooling Capacity at Rated Conditions = 284.70 W
   **   ~~~   ** Rated Total Cooling Capacity at Rated Conditions    = 16.27 W
   **   ~~~   ** See eio file for further details.
   **   ~~~   ** Check Total and Sensible Cooling Capacity coefficients in curves to ensure they are accurate.
   **   ~~~   ** Check Zone and System Sizing objects to verify sizing inputs.
   **   ~~~   ** Sizing statistics:
   **   ~~~   ** Rated entering Air Wet-Bulb Temperature = 19.000 C
   **   ~~~   ** Peak entering Air Wet-Bulb Temperature = 17.396 C
   **   ~~~   ** Entering Water Temperature used = 30.000 C
   **   ~~~   ** Design air and water flow rates = 1.0
   **   ~~~   ** Rated ratio of load-side air wet-bulb temperature to 283.15 C (Rated ratioTWB) = 1.031
   **   ~~~   ** Rated ratio of source-side inlet water temperature to 283.15 C (Rated ratioTS)  = 1.070
   **   ~~~   ** Peak ratio of load-side air wet-bulb temperature to 283.15 C (Peak ratioTWB) = 1.026
   **   ~~~   ** Peak ratio of source-side inlet water temperature to 283.15 C (Peak ratioTS)  = 1.084
   **   ~~~   ** Rated Total Cooling Capacity Modifier = 1.00000
   **   ~~~   ** Peak Design Total Cooling Capacity Modifier = 0.91246
   **   ~~~   ** Rated Sensible Cooling Capacity Modifier = 1.00000
   **   ~~~   ** Peak Design Sensible Cooling Capacity Modifier = 0.99828
   **   ~~~   ** ...Rated Total Cooling Capacity at Rated Conditions = Total Peak Design Load * Rated Total Cooling Capacity Modifier  / Peak Design Total Cooling Capacity Modifier
   **   ~~~   ** ...Rated Sensible Cooling Capacity at Rated Conditions = Peak Design Sensible Load * Rated Sensible Cooling Capacity Modifier  / Peak Design Sensible Cooling Capacity Modifier
   **   ~~~   ** Carefully review the Load Side Total, Sensible, and Latent heat transfer rates
   **   ~~~   ** ... to ensure they meet the expected manufacturers performance specifications.
   ** Warning ** COIL:HEATING:WATERTOAIRHEATPUMP:EQUATIONFIT "TOILET-1-0 WAHP HEATING COIL"
   **   ~~~   ** ...used with COIL:COOLING:WATERTOAIRHEATPUMP:EQUATIONFIT "TOILET-1-0 WAHP COOLING COIL"
   **   ~~~   ** ...heating capacity is disproportionate (> 20% different) to total cooling capacity
   **   ~~~   ** ...heating capacity = 4000.000 W
   **   ~~~   ** ...cooling capacity = 16.274 W
   ** Warning ** COIL:COOLING:WATERTOAIRHEATPUMP:EQUATIONFIT "STAIRS-1-0 WAHP COOLING COIL"
   **   ~~~   ** SizeWaterToAirCoil: Rated Sensible Cooling Capacity > Rated Total Cooling Capacity
   **   ~~~   ** Both of these capacity inputs have been autosized.
   **   ~~~   ** Rated Sensible Cooling Capacity at Rated Conditions = 599.91 W
   **   ~~~   ** Rated Total Cooling Capacity at Rated Conditions    = 406.69 W
   **   ~~~   ** See eio file for further details.
   **   ~~~   ** Check Total and Sensible Cooling Capacity coefficients in curves to ensure they are accurate.
   **   ~~~   ** Check Zone and System Sizing objects to verify sizing inputs.
   **   ~~~   ** Sizing statistics:
   **   ~~~   ** Rated entering Air Wet-Bulb Temperature = 19.000 C
   **   ~~~   ** Peak entering Air Wet-Bulb Temperature = 17.427 C
   **   ~~~   ** Entering Water Temperature used = 30.000 C
   **   ~~~   ** Design air and water flow rates = 1.0
   **   ~~~   ** Rated ratio of load-side air wet-bulb temperature to 283.15 C (Rated ratioTWB) = 1.031
   **   ~~~   ** Rated ratio of source-side inlet water temperature to 283.15 C (Rated ratioTS)  = 1.070
   **   ~~~   ** Peak ratio of load-side air wet-bulb temperature to 283.15 C (Peak ratioTWB) = 1.026
   **   ~~~   ** Peak ratio of source-side inlet water temperature to 283.15 C (Peak ratioTS)  = 1.084
   **   ~~~   ** Rated Total Cooling Capacity Modifier = 1.00000
   **   ~~~   ** Peak Design Total Cooling Capacity Modifier = 0.91366
   **   ~~~   ** Rated Sensible Cooling Capacity Modifier = 1.00000
   **   ~~~   ** Peak Design Sensible Cooling Capacity Modifier = 0.98493
   **   ~~~   ** ...Rated Total Cooling Capacity at Rated Conditions = Total Peak Design Load * Rated Total Cooling Capacity Modifier  / Peak Design Total Cooling Capacity Modifier
   **   ~~~   ** ...Rated Sensible Cooling Capacity at Rated Conditions = Peak Design Sensible Load * Rated Sensible Cooling Capacity Modifier  / Peak Design Sensible Cooling Capacity Modifier
   **   ~~~   ** Carefully review the Load Side Total, Sensible, and Latent heat transfer rates
   **   ~~~   ** ... to ensure they meet the expected manufacturers performance specifications.
   ** Warning ** COIL:HEATING:WATERTOAIRHEATPUMP:EQUATIONFIT "STAIRS-1-0 WAHP HEATING COIL"
   **   ~~~   ** ...used with COIL:COOLING:WATERTOAIRHEATPUMP:EQUATIONFIT "STAIRS-1-0 WAHP COOLING COIL"
   **   ~~~   ** ...heating capacity is disproportionate (> 20% different) to total cooling capacity
   **   ~~~   ** ...heating capacity = 4000.000 W
   **   ~~~   ** ...cooling capacity = 406.696 W
   ** Warning ** COIL:COOLING:WATERTOAIRHEATPUMP:EQUATIONFIT "SERVICE-1-0 WAHP COOLING COIL"
   **   ~~~   ** SizeWaterToAirCoil: Rated Sensible Cooling Capacity > Rated Total Cooling Capacity
   **   ~~~   ** Both of these capacity inputs have been autosized.
   **   ~~~   ** Rated Sensible Cooling Capacity at Rated Conditions = 699.95 W
   **   ~~~   ** Rated Total Cooling Capacity at Rated Conditions    = 367.44 W
   **   ~~~   ** See eio file for further details.
   **   ~~~   ** Check Total and Sensible Cooling Capacity coefficients in curves to ensure they are accurate.
   **   ~~~   ** Check Zone and System Sizing objects to verify sizing inputs.
   **   ~~~   ** Sizing statistics:
   **   ~~~   ** Rated entering Air Wet-Bulb Temperature = 19.000 C
   **   ~~~   ** Peak entering Air Wet-Bulb Temperature = 16.235 C
   **   ~~~   ** Entering Water Temperature used = 30.000 C
   **   ~~~   ** Design air and water flow rates = 1.0
   **   ~~~   ** Rated ratio of load-side air wet-bulb temperature to 283.15 C (Rated ratioTWB) = 1.031
   **   ~~~   ** Rated ratio of source-side inlet water temperature to 283.15 C (Rated ratioTS)  = 1.070
   **   ~~~   ** Peak ratio of load-side air wet-bulb temperature to 283.15 C (Peak ratioTWB) = 1.022
   **   ~~~   ** Peak ratio of source-side inlet water temperature to 283.15 C (Peak ratioTS)  = 1.084
   **   ~~~   ** Rated Total Cooling Capacity Modifier = 1.00000
   **   ~~~   ** Peak Design Total Cooling Capacity Modifier = 0.86698
   **   ~~~   ** Rated Sensible Cooling Capacity Modifier = 1.00000
   **   ~~~   ** Peak Design Sensible Cooling Capacity Modifier = 0.97098
   **   ~~~   ** ...Rated Total Cooling Capacity at Rated Conditions = Total Peak Design Load * Rated Total Cooling Capacity Modifier  / Peak Design Total Cooling Capacity Modifier
   **   ~~~   ** ...Rated Sensible Cooling Capacity at Rated Conditions = Peak Design Sensible Load * Rated Sensible Cooling Capacity Modifier  / Peak Design Sensible Cooling Capacity Modifier
   **   ~~~   ** Carefully review the Load Side Total, Sensible, and Latent heat transfer rates
   **   ~~~   ** ... to ensure they meet the expected manufacturers performance specifications.
   ** Warning ** COIL:HEATING:WATERTOAIRHEATPUMP:EQUATIONFIT "SERVICE-1-0 WAHP HEATING COIL"
   **   ~~~   ** ...used with COIL:COOLING:WATERTOAIRHEATPUMP:EQUATIONFIT "SERVICE-1-0 WAHP COOLING COIL"
   **   ~~~   ** ...heating capacity is disproportionate (> 20% different) to total cooling capacity
   **   ~~~   ** ...heating capacity = 4000.000 W
   **   ~~~   ** ...cooling capacity = 367.442 W
   ** Warning ** COIL:COOLING:WATERTOAIRHEATPUMP:EQUATIONFIT "CORRIDOR-1-0 WAHP COOLING COIL"
   **   ~~~   ** SizeWaterToAirCoil: Rated Sensible Cooling Capacity > Rated Total Cooling Capacity
   **   ~~~   ** Both of these capacity inputs have been autosized.
   **   ~~~   ** Rated Sensible Cooling Capacity at Rated Conditions = 1725.35 W
   **   ~~~   ** Rated Total Cooling Capacity at Rated Conditions    = 440.13 W
   **   ~~~   ** See eio file for further details.
   **   ~~~   ** Check Total and Sensible Cooling Capacity coefficients in curves to ensure they are accurate.
   **   ~~~   ** Check Zone and System Sizing objects to verify sizing inputs.
   **   ~~~   ** Sizing statistics:
   **   ~~~   ** Rated entering Air Wet-Bulb Temperature = 19.000 C
   **   ~~~   ** Peak entering Air Wet-Bulb Temperature = 16.570 C
   **   ~~~   ** Entering Water Temperature used = 30.000 C
   **   ~~~   ** Design air and water flow rates = 1.0
   **   ~~~   ** Rated ratio of load-side air wet-bulb temperature to 283.15 C (Rated ratioTWB) = 1.031
   **   ~~~   ** Rated ratio of source-side inlet water temperature to 283.15 C (Rated ratioTS)  = 1.070
   **   ~~~   ** Peak ratio of load-side air wet-bulb temperature to 283.15 C (Peak ratioTWB) = 1.023
   **   ~~~   ** Peak ratio of source-side inlet water temperature to 283.15 C (Peak ratioTS)  = 1.084
   **   ~~~   ** Rated Total Cooling Capacity Modifier = 1.00000
   **   ~~~   ** Peak Design Total Cooling Capacity Modifier = 0.88012
   **   ~~~   ** Rated Sensible Cooling Capacity Modifier = 1.00000
   **   ~~~   ** Peak Design Sensible Cooling Capacity Modifier = 0.96810
   **   ~~~   ** ...Rated Total Cooling Capacity at Rated Conditions = Total Peak Design Load * Rated Total Cooling Capacity Modifier  / Peak Design Total Cooling Capacity Modifier
   **   ~~~   ** ...Rated Sensible Cooling Capacity at Rated Conditions = Peak Design Sensible Load * Rated Sensible Cooling Capacity Modifier  / Peak Design Sensible Cooling Capacity Modifier
   **   ~~~   ** Carefully review the Load Side Total, Sensible, and Latent heat transfer rates
   **   ~~~   ** ... to ensure they meet the expected manufacturers performance specifications.
   ** Warning ** COIL:HEATING:WATERTOAIRHEATPUMP:EQUATIONFIT "CORRIDOR-1-0 WAHP HEATING COIL"
   **   ~~~   ** ...used with COIL:COOLING:WATERTOAIRHEATPUMP:EQUATIONFIT "CORRIDOR-1-0 WAHP COOLING COIL"
   **   ~~~   ** ...heating capacity is disproportionate (> 20% different) to total cooling capacity
   **   ~~~   ** ...heating capacity = 4000.000 W
   **   ~~~   ** ...cooling capacity = 440.131 W
   ** Warning ** COIL:COOLING:WATERTOAIRHEATPUMP:EQUATIONFIT "OFFICE-2-0 WAHP COOLING COIL"
   **   ~~~   ** SizeWaterToAirCoil: Rated Sensible Cooling Capacity > Rated Total Cooling Capacity
   **   ~~~   ** Both of these capacity inputs have been autosized.
   **   ~~~   ** Rated Sensible Cooling Capacity at Rated Conditions = 2371.57 W
   **   ~~~   ** Rated Total Cooling Capacity at Rated Conditions    = 1489.52 W
   **   ~~~   ** See eio file for further details.
   **   ~~~   ** Check Total and Sensible Cooling Capacity coefficients in curves to ensure they are accurate.
   **   ~~~   ** Check Zone and System Sizing objects to verify sizing inputs.
   **   ~~~   ** Sizing statistics:
   **   ~~~   ** Rated entering Air Wet-Bulb Temperature = 19.000 C
   **   ~~~   ** Peak entering Air Wet-Bulb Temperature = 17.764 C
   **   ~~~   ** Entering Water Temperature used = 30.000 C
   **   ~~~   ** Design air and water flow rates = 1.0
   **   ~~~   ** Rated ratio of load-side air wet-bulb temperature to 283.15 C (Rated ratioTWB) = 1.031
   **   ~~~   ** Rated ratio of source-side inlet water temperature to 283.15 C (Rated ratioTS)  = 1.070
   **   ~~~   ** Peak ratio of load-side air wet-bulb temperature to 283.15 C (Peak ratioTWB) = 1.027
   **   ~~~   ** Peak ratio of source-side inlet water temperature to 283.15 C (Peak ratioTS)  = 1.084
   **   ~~~   ** Rated Total Cooling Capacity Modifier = 1.00000
   **   ~~~   ** Peak Design Total Cooling Capacity Modifier = 0.92688
   **   ~~~   ** Rated Sensible Cooling Capacity Modifier = 1.00000
   **   ~~~   ** Peak Design Sensible Cooling Capacity Modifier = 0.98934
   **   ~~~   ** ...Rated Total Cooling Capacity at Rated Conditions = Total Peak Design Load * Rated Total Cooling Capacity Modifier  / Peak Design Total Cooling Capacity Modifier
   **   ~~~   ** ...Rated Sensible Cooling Capacity at Rated Conditions = Peak Design Sensible Load * Rated Sensible Cooling Capacity Modifier  / Peak Design Sensible Cooling Capacity Modifier
   **   ~~~   ** Carefully review the Load Side Total, Sensible, and Latent heat transfer rates
   **   ~~~   ** ... to ensure they meet the expected manufacturers performance specifications.
   ** Warning ** COIL:HEATING:WATERTOAIRHEATPUMP:EQUATIONFIT "OFFICE-2-0 WAHP HEATING COIL"
   **   ~~~   ** ...used with COIL:COOLING:WATERTOAIRHEATPUMP:EQUATIONFIT "OFFICE-2-0 WAHP COOLING COIL"
   **   ~~~   ** ...heating capacity is disproportionate (> 20% different) to total cooling capacity
   **   ~~~   ** ...heating capacity = 4000.000 W
   **   ~~~   ** ...cooling capacity = 1489.520 W
   ** Warning ** COIL:COOLING:WATERTOAIRHEATPUMP:EQUATIONFIT "OFFICE-2-1 WAHP COOLING COIL"
   **   ~~~   ** SizeWaterToAirCoil: Rated Sensible Cooling Capacity > Rated Total Cooling Capacity
   **   ~~~   ** Both of these capacity inputs have been autosized.
   **   ~~~   ** Rated Sensible Cooling Capacity at Rated Conditions = 1480.30 W
   **   ~~~   ** Rated Total Cooling Capacity at Rated Conditions    = 1044.83 W
   **   ~~~   ** See eio file for further details.
   **   ~~~   ** Check Total and Sensible Cooling Capacity coefficients in curves to ensure they are accurate.
   **   ~~~   ** Check Zone and System Sizing objects to verify sizing inputs.
   **   ~~~   ** Sizing statistics:
   **   ~~~   ** Rated entering Air Wet-Bulb Temperature = 19.000 C
   **   ~~~   ** Peak entering Air Wet-Bulb Temperature = 18.042 C
   **   ~~~   ** Entering Water Temperature used = 30.000 C
   **   ~~~   ** Design air and water flow rates = 1.0
   **   ~~~   ** Rated ratio of load-side air wet-bulb temperature to 283.15 C (Rated ratioTWB) = 1.031
   **   ~~~   ** Rated ratio of source-side inlet water temperature to 283.15 C (Rated ratioTS)  = 1.070
   **   ~~~   ** Peak ratio of load-side air wet-bulb temperature to 283.15 C (Peak ratioTWB) = 1.028
   **   ~~~   ** Peak ratio of source-side inlet water temperature to 283.15 C (Peak ratioTS)  = 1.084
   **   ~~~   ** Rated Total Cooling Capacity Modifier = 1.00000
   **   ~~~   ** Peak Design Total Cooling Capacity Modifier = 0.93776
   **   ~~~   ** Rated Sensible Cooling Capacity Modifier = 1.00000
   **   ~~~   ** Peak Design Sensible Cooling Capacity Modifier = 0.99307
   **   ~~~   ** ...Rated Total Cooling Capacity at Rated Conditions = Total Peak Design Load * Rated Total Cooling Capacity Modifier  / Peak Design Total Cooling Capacity Modifier
   **   ~~~   ** ...Rated Sensible Cooling Capacity at Rated Conditions = Peak Design Sensible Load * Rated Sensible Cooling Capacity Modifier  / Peak Design Sensible Cooling Capacity Modifier
   **   ~~~   ** Carefully review the Load Side Total, Sensible, and Latent heat transfer rates
   **   ~~~   ** ... to ensure they meet the expected manufacturers performance specifications.
   ** Warning ** COIL:HEATING:WATERTOAIRHEATPUMP:EQUATIONFIT "OFFICE-2-1 WAHP HEATING COIL"
   **   ~~~   ** ...used with COIL:COOLING:WATERTOAIRHEATPUMP:EQUATIONFIT "OFFICE-2-1 WAHP COOLING COIL"
   **   ~~~   ** ...heating capacity is disproportionate (> 20% different) to total cooling capacity
   **   ~~~   ** ...heating capacity = 4000.000 W
   **   ~~~   ** ...cooling capacity = 1044.837 W
   ** Warning ** COIL:COOLING:WATERTOAIRHEATPUMP:EQUATIONFIT "OFFICE-2-4 WAHP COOLING COIL"
   **   ~~~   ** SizeWaterToAirCoil: Rated Sensible Cooling Capacity > Rated Total Cooling Capacity
   **   ~~~   ** Both of these capacity inputs have been autosized.
   **   ~~~   ** Rated Sensible Cooling Capacity at Rated Conditions = 1533.51 W
   **   ~~~   ** Rated Total Cooling Capacity at Rated Conditions    = 1523.88 W
   **   ~~~   ** See eio file for further details.
   **   ~~~   ** Check Total and Sensible Cooling Capacity coefficients in curves to ensure they are accurate.
   **   ~~~   ** Check Zone and System Sizing objects to verify sizing inputs.
   **   ~~~   ** Sizing statistics:
   **   ~~~   ** Rated entering Air Wet-Bulb Temperature = 19.000 C
   **   ~~~   ** Peak entering Air Wet-Bulb Temperature = 18.173 C
   **   ~~~   ** Entering Water Temperature used = 30.000 C
   **   ~~~   ** Design air and water flow rates = 1.0
   **   ~~~   ** Rated ratio of load-side air wet-bulb temperature to 283.15 C (Rated ratioTWB) = 1.031
   **   ~~~   ** Rated ratio of source-side inlet water temperature to 283.15 C (Rated ratioTS)  = 1.070
   **   ~~~   ** Peak ratio of load-side air wet-bulb temperature to 283.15 C (Peak ratioTWB) = 1.028
   **   ~~~   ** Peak ratio of source-side inlet water temperature to 283.15 C (Peak ratioTS)  = 1.084
   **   ~~~   ** Rated Total Cooling Capacity Modifier = 1.00000
   **   ~~~   ** Peak Design Total Cooling Capacity Modifier = 0.94287
   **   ~~~   ** Rated Sensible Cooling Capacity Modifier = 1.00000
   **   ~~~   ** Peak Design Sensible Cooling Capacity Modifier = 0.99086
   **   ~~~   ** ...Rated Total Cooling Capacity at Rated Conditions = Total Peak Design Load * Rated Total Cooling Capacity Modifier  / Peak Design Total Cooling Capacity Modifier
   **   ~~~   ** ...Rated Sensible Cooling Capacity at Rated Conditions = Peak Design Sensible Load * Rated Sensible Cooling Capacity Modifier  / Peak Design Sensible Cooling Capacity Modifier
   **   ~~~   ** Carefully review the Load Side Total, Sensible, and Latent heat transfer rates
   **   ~~~   ** ... to ensure they meet the expected manufacturers performance specifications.
   ** Warning ** COIL:HEATING:WATERTOAIRHEATPUMP:EQUATIONFIT "OFFICE-2-4 WAHP HEATING COIL"
   **   ~~~   ** ...used with COIL:COOLING:WATERTOAIRHEATPUMP:EQUATIONFIT "OFFICE-2-4 WAHP COOLING COIL"
   **   ~~~   ** ...heating capacity is disproportionate (> 20% different) to total cooling capacity
   **   ~~~   ** ...heating capacity = 4000.000 W
   **   ~~~   ** ...cooling capacity = 1523.887 W
   ** Warning ** COIL:COOLING:WATERTOAIRHEATPUMP:EQUATIONFIT "OFFICE-2-2 WAHP COOLING COIL"
   **   ~~~   ** SizeWaterToAirCoil: Rated Sensible Cooling Capacity > Rated Total Cooling Capacity
   **   ~~~   ** Both of these capacity inputs have been autosized.
   **   ~~~   ** Rated Sensible Cooling Capacity at Rated Conditions = 1823.75 W
   **   ~~~   ** Rated Total Cooling Capacity at Rated Conditions    = 753.84 W
   **   ~~~   ** See eio file for further details.
   **   ~~~   ** Check Total and Sensible Cooling Capacity coefficients in curves to ensure they are accurate.
   **   ~~~   ** Check Zone and System Sizing objects to verify sizing inputs.
   **   ~~~   ** Sizing statistics:
   **   ~~~   ** Rated entering Air Wet-Bulb Temperature = 19.000 C
   **   ~~~   ** Peak entering Air Wet-Bulb Temperature = 17.309 C
   **   ~~~   ** Entering Water Temperature used = 30.000 C
   **   ~~~   ** Design air and water flow rates = 1.0
   **   ~~~   ** Rated ratio of load-side air wet-bulb temperature to 283.15 C (Rated ratioTWB) = 1.031
   **   ~~~   ** Rated ratio of source-side inlet water temperature to 283.15 C (Rated ratioTS)  = 1.070
   **   ~~~   ** Peak ratio of load-side air wet-bulb temperature to 283.15 C (Peak ratioTWB) = 1.025
   **   ~~~   ** Peak ratio of source-side inlet water temperature to 283.15 C (Peak ratioTS)  = 1.084
   **   ~~~   ** Rated Total Cooling Capacity Modifier = 1.00000
   **   ~~~   ** Peak Design Total Cooling Capacity Modifier = 0.90906
   **   ~~~   ** Rated Sensible Cooling Capacity Modifier = 1.00000
   **   ~~~   ** Peak Design Sensible Cooling Capacity Modifier = 0.90436
   **   ~~~   ** ...Rated Total Cooling Capacity at Rated Conditions = Total Peak Design Load * Rated Total Cooling Capacity Modifier  / Peak Design Total Cooling Capacity Modifier
   **   ~~~   ** ...Rated Sensible Cooling Capacity at Rated Conditions = Peak Design Sensible Load * Rated Sensible Cooling Capacity Modifier  / Peak Design Sensible Cooling Capacity Modifier
   **   ~~~   ** Carefully review the Load Side Total, Sensible, and Latent heat transfer rates
   **   ~~~   ** ... to ensure they meet the expected manufacturers performance specifications.
   ** Warning ** COIL:HEATING:WATERTOAIRHEATPUMP:EQUATIONFIT "OFFICE-2-2 WAHP HEATING COIL"
   **   ~~~   ** ...used with COIL:COOLING:WATERTOAIRHEATPUMP:EQUATIONFIT "OFFICE-2-2 WAHP COOLING COIL"
   **   ~~~   ** ...heating capacity is disproportionate (> 20% different) to total cooling capacity
   **   ~~~   ** ...heating capacity = 4000.000 W
   **   ~~~   ** ...cooling capacity = 753.848 W
   ** Warning ** COIL:COOLING:WATERTOAIRHEATPUMP:EQUATIONFIT "OFFICE-2-3 WAHP COOLING COIL"
   **   ~~~   ** SizeWaterToAirCoil: Rated Sensible Cooling Capacity > Rated Total Cooling Capacity
   **   ~~~   ** Both of these capacity inputs have been autosized.
   **   ~~~   ** Rated Sensible Cooling Capacity at Rated Conditions = 2654.43 W
   **   ~~~   ** Rated Total Cooling Capacity at Rated Conditions    = 1131.57 W
   **   ~~~   ** See eio file for further details.
   **   ~~~   ** Check Total and Sensible Cooling Capacity coefficients in curves to ensure they are accurate.
   **   ~~~   ** Check Zone and System Sizing objects to verify sizing inputs.
   **   ~~~   ** Sizing statistics:
   **   ~~~   ** Rated entering Air Wet-Bulb Temperature = 19.000 C
   **   ~~~   ** Peak entering Air Wet-Bulb Temperature = 17.248 C
   **   ~~~   ** Entering Water Temperature used = 30.000 C
   **   ~~~   ** Design air and water flow rates = 1.0
   **   ~~~   ** Rated ratio of load-side air wet-bulb temperature to 283.15 C (Rated ratioTWB) = 1.031
   **   ~~~   ** Rated ratio of source-side inlet water temperature to 283.15 C (Rated ratioTS)  = 1.070
   **   ~~~   ** Peak ratio of load-side air wet-bulb temperature to 283.15 C (Peak ratioTWB) = 1.025
   **   ~~~   ** Peak ratio of source-side inlet water temperature to 283.15 C (Peak ratioTS)  = 1.084
   **   ~~~   ** Rated Total Cooling Capacity Modifier = 1.00000
   **   ~~~   ** Peak Design Total Cooling Capacity Modifier = 0.90666
   **   ~~~   ** Rated Sensible Cooling Capacity Modifier = 1.00000
   **   ~~~   ** Peak Design Sensible Cooling Capacity Modifier = 0.91059
   **   ~~~   ** ...Rated Total Cooling Capacity at Rated Conditions = Total Peak Design Load * Rated Total Cooling Capacity Modifier  / Peak Design Total Cooling Capacity Modifier
   **   ~~~   ** ...Rated Sensible Cooling Capacity at Rated Conditions = Peak Design Sensible Load * Rated Sensible Cooling Capacity Modifier  / Peak Design Sensible Cooling Capacity Modifier
   **   ~~~   ** Carefully review the Load Side Total, Sensible, and Latent heat transfer rates
   **   ~~~   ** ... to ensure they meet the expected manufacturers performance specifications.
   ** Warning ** COIL:HEATING:WATERTOAIRHEATPUMP:EQUATIONFIT "OFFICE-2-3 WAHP HEATING COIL"
   **   ~~~   ** ...used with COIL:COOLING:WATERTOAIRHEATPUMP:EQUATIONFIT "OFFICE-2-3 WAHP COOLING COIL"
   **   ~~~   ** ...heating capacity is disproportionate (> 20% different) to total cooling capacity
   **   ~~~   ** ...heating capacity = 4000.000 W
   **   ~~~   ** ...cooling capacity = 1131.571 W
   ** Warning ** COIL:COOLING:WATERTOAIRHEATPUMP:EQUATIONFIT "TOILET-2-0 WAHP COOLING COIL"
   **   ~~~   ** SizeWaterToAirCoil: Rated Sensible Cooling Capacity > Rated Total Cooling Capacity
   **   ~~~   ** Both of these capacity inputs have been autosized.
   **   ~~~   ** Rated Sensible Cooling Capacity at Rated Conditions = 278.80 W
   **   ~~~   ** Rated Total Cooling Capacity at Rated Conditions    = 265.03 W
   **   ~~~   ** See eio file for further details.
   **   ~~~   ** Check Total and Sensible Cooling Capacity coefficients in curves to ensure they are accurate.
   **   ~~~   ** Check Zone and System Sizing objects to verify sizing inputs.
   **   ~~~   ** Sizing statistics:
   **   ~~~   ** Rated entering Air Wet-Bulb Temperature = 19.000 C
   **   ~~~   ** Peak entering Air Wet-Bulb Temperature = 17.654 C
   **   ~~~   ** Entering Water Temperature used = 30.000 C
   **   ~~~   ** Design air and water flow rates = 1.0
   **   ~~~   ** Rated ratio of load-side air wet-bulb temperature to 283.15 C (Rated ratioTWB) = 1.031
   **   ~~~   ** Rated ratio of source-side inlet water temperature to 283.15 C (Rated ratioTS)  = 1.070
   **   ~~~   ** Peak ratio of load-side air wet-bulb temperature to 283.15 C (Peak ratioTWB) = 1.027
   **   ~~~   ** Peak ratio of source-side inlet water temperature to 283.15 C (Peak ratioTS)  = 1.084
   **   ~~~   ** Rated Total Cooling Capacity Modifier = 1.00000
   **   ~~~   ** Peak Design Total Cooling Capacity Modifier = 0.92258
   **   ~~~   ** Rated Sensible Cooling Capacity Modifier = 1.00000
   **   ~~~   ** Peak Design Sensible Cooling Capacity Modifier = 0.99004
   **   ~~~   ** ...Rated Total Cooling Capacity at Rated Conditions = Total Peak Design Load * Rated Total Cooling Capacity Modifier  / Peak Design Total Cooling Capacity Modifier
   **   ~~~   ** ...Rated Sensible Cooling Capacity at Rated Conditions = Peak Design Sensible Load * Rated Sensible Cooling Capacity Modifier  / Peak Design Sensible Cooling Capacity Modifier
   **   ~~~   ** Carefully review the Load Side Total, Sensible, and Latent heat transfer rates
   **   ~~~   ** ... to ensure they meet the expected manufacturers performance specifications.
   ** Warning ** COIL:HEATING:WATERTOAIRHEATPUMP:EQUATIONFIT "TOILET-2-0 WAHP HEATING COIL"
   **   ~~~   ** ...used with COIL:COOLING:WATERTOAIRHEATPUMP:EQUATIONFIT "TOILET-2-0 WAHP COOLING COIL"
   **   ~~~   ** ...heating capacity is disproportionate (> 20% different) to total cooling capacity
   **   ~~~   ** ...heating capacity = 4000.000 W
   **   ~~~   ** ...cooling capacity = 265.033 W
   ** Warning ** COIL:HEATING:WATERTOAIRHEATPUMP:EQUATIONFIT "STAIRS-2-0 WAHP HEATING COIL"
   **   ~~~   ** ...used with COIL:COOLING:WATERTOAIRHEATPUMP:EQUATIONFIT "STAIRS-2-0 WAHP COOLING COIL"
   **   ~~~   ** ...heating capacity is disproportionate (> 20% different) to total cooling capacity
   **   ~~~   ** ...heating capacity = 4000.000 W
   **   ~~~   ** ...cooling capacity = 808.939 W
   ** Warning ** COIL:COOLING:WATERTOAIRHEATPUMP:EQUATIONFIT "TECHNIC-2-0 WAHP COOLING COIL"
   **   ~~~   ** SizeWaterToAirCoil: Rated Sensible Cooling Capacity > Rated Total Cooling Capacity
   **   ~~~   ** Both of these capacity inputs have been autosized.
   **   ~~~   ** Rated Sensible Cooling Capacity at Rated Conditions = 389.33 W
   **   ~~~   ** Rated Total Cooling Capacity at Rated Conditions    = 313.86 W
   **   ~~~   ** See eio file for further details.
   **   ~~~   ** Check Total and Sensible Cooling Capacity coefficients in curves to ensure they are accurate.
   **   ~~~   ** Check Zone and System Sizing objects to verify sizing inputs.
   **   ~~~   ** Sizing statistics:
   **   ~~~   ** Rated entering Air Wet-Bulb Temperature = 19.000 C
   **   ~~~   ** Peak entering Air Wet-Bulb Temperature = 16.637 C
   **   ~~~   ** Entering Water Temperature used = 30.000 C
   **   ~~~   ** Design air and water flow rates = 1.0
   **   ~~~   ** Rated ratio of load-side air wet-bulb temperature to 283.15 C (Rated ratioTWB) = 1.031
   **   ~~~   ** Rated ratio of source-side inlet water temperature to 283.15 C (Rated ratioTS)  = 1.070
   **   ~~~   ** Peak ratio of load-side air wet-bulb temperature to 283.15 C (Peak ratioTWB) = 1.023
   **   ~~~   ** Peak ratio of source-side inlet water temperature to 283.15 C (Peak ratioTS)  = 1.084
   **   ~~~   ** Rated Total Cooling Capacity Modifier = 1.00000
   **   ~~~   ** Peak Design Total Cooling Capacity Modifier = 0.88272
   **   ~~~   ** Rated Sensible Cooling Capacity Modifier = 1.00000
   **   ~~~   ** Peak Design Sensible Cooling Capacity Modifier = 0.95205
   **   ~~~   ** ...Rated Total Cooling Capacity at Rated Conditions = Total Peak Design Load * Rated Total Cooling Capacity Modifier  / Peak Design Total Cooling Capacity Modifier
   **   ~~~   ** ...Rated Sensible Cooling Capacity at Rated Conditions = Peak Design Sensible Load * Rated Sensible Cooling Capacity Modifier  / Peak Design Sensible Cooling Capacity Modifier
   **   ~~~   ** Carefully review the Load Side Total, Sensible, and Latent heat transfer rates
   **   ~~~   ** ... to ensure they meet the expected manufacturers performance specifications.
   ** Warning ** COIL:HEATING:WATERTOAIRHEATPUMP:EQUATIONFIT "TECHNIC-2-0 WAHP HEATING COIL"
   **   ~~~   ** ...used with COIL:COOLING:WATERTOAIRHEATPUMP:EQUATIONFIT "TECHNIC-2-0 WAHP COOLING COIL"
   **   ~~~   ** ...heating capacity is disproportionate (> 20% different) to total cooling capacity
   **   ~~~   ** ...heating capacity = 4000.000 W
   **   ~~~   ** ...cooling capacity = 313.869 W
   ** Warning ** COIL:COOLING:WATERTOAIRHEATPUMP:EQUATIONFIT "CORRIDOR-2-0 WAHP COOLING COIL"
   **   ~~~   ** SizeWaterToAirCoil: Rated Sensible Cooling Capacity > Rated Total Cooling Capacity
   **   ~~~   ** Both of these capacity inputs have been autosized.
   **   ~~~   ** Rated Sensible Cooling Capacity at Rated Conditions = 1431.62 W
   **   ~~~   ** Rated Total Cooling Capacity at Rated Conditions    = 1189.61 W
   **   ~~~   ** See eio file for further details.
   **   ~~~   ** Check Total and Sensible Cooling Capacity coefficients in curves to ensure they are accurate.
   **   ~~~   ** Check Zone and System Sizing objects to verify sizing inputs.
   **   ~~~   ** Sizing statistics:
   **   ~~~   ** Rated entering Air Wet-Bulb Temperature = 19.000 C
   **   ~~~   ** Peak entering Air Wet-Bulb Temperature = 16.713 C
   **   ~~~   ** Entering Water Temperature used = 30.000 C
   **   ~~~   ** Design air and water flow rates = 1.0
   **   ~~~   ** Rated ratio of load-side air wet-bulb temperature to 283.15 C (Rated ratioTWB) = 1.031
   **   ~~~   ** Rated ratio of source-side inlet water temperature to 283.15 C (Rated ratioTS)  = 1.070
   **   ~~~   ** Peak ratio of load-side air wet-bulb temperature to 283.15 C (Peak ratioTWB) = 1.023
   **   ~~~   ** Peak ratio of source-side inlet water temperature to 283.15 C (Peak ratioTS)  = 1.084
   **   ~~~   ** Rated Total Cooling Capacity Modifier = 1.00000
   **   ~~~   ** Peak Design Total Cooling Capacity Modifier = 0.88572
   **   ~~~   ** Rated Sensible Cooling Capacity Modifier = 1.00000
   **   ~~~   ** Peak Design Sensible Cooling Capacity Modifier = 0.96633
   **   ~~~   ** ...Rated Total Cooling Capacity at Rated Conditions = Total Peak Design Load * Rated Total Cooling Capacity Modifier  / Peak Design Total Cooling Capacity Modifier
   **   ~~~   ** ...Rated Sensible Cooling Capacity at Rated Conditions = Peak Design Sensible Load * Rated Sensible Cooling Capacity Modifier  / Peak Design Sensible Cooling Capacity Modifier
   **   ~~~   ** Carefully review the Load Side Total, Sensible, and Latent heat transfer rates
   **   ~~~   ** ... to ensure they meet the expected manufacturers performance specifications.
   ** Warning ** COIL:HEATING:WATERTOAIRHEATPUMP:EQUATIONFIT "CORRIDOR-2-0 WAHP HEATING COIL"
   **   ~~~   ** ...used with COIL:COOLING:WATERTOAIRHEATPUMP:EQUATIONFIT "CORRIDOR-2-0 WAHP COOLING COIL"
   **   ~~~   ** ...heating capacity is disproportionate (> 20% different) to total cooling capacity
   **   ~~~   ** ...heating capacity = 4000.000 W
   **   ~~~   ** ...cooling capacity = 1189.610 W
   ************* Testing Individual Branch Integrity
   ************* All Branches passed integrity testing
   ************* Testing Individual Supply Air Path Integrity
   ************* All Supply Air Paths passed integrity testing
   ************* Testing Individual Return Air Path Integrity
   ************* All Return Air Paths passed integrity testing
   ************* No node connection errors were found.
   ************* Beginning Simulation
   ** Warning ** GetDensityGlycol: Temperature is out of range (too low) for fluid [WATER] density **
   **   ~~~   ** ..Called From:NodeReportingCalc:MAINTOWER CNDW OUTLET,Temperature=[-31.96], supplied data range=[0.00,100.00]
   **   ~~~   **  Environment=RUNPERIODNOVEMBER, at Simulation time=11/01 00:00 - 00:10
   ** Warning ** GetSpecificHeatGlycol: Temperature is out of range (too low) for fluid [WATER] specific heat supplied values **
   **   ~~~   ** ..Called From:NodeReportingCalc:OFFICE-0-0 WAHP HEATING WATER OUTLET NODE,Temperature=[-32.53], supplied data range=[0.00,125.00]
   **   ~~~   **  Environment=RUNPERIODNOVEMBER, at Simulation time=11/01 07:00 - 07:10
   ************* Simulation Error Summary *************
   ** Warning ** The following Report Variables were requested but not generated -- check.rdd file
   **   ~~~   ** Either the IDF did not contain these elements, the variable name is misspelled,
   **   ~~~   ** or the requested variable is an advanced output which requires Output : Diagnostics, DisplayAdvancedReportVariables;
   ************* Key=*, VarName=BOILER ELECTRICITY ENERGY, Frequency=
   ************* Key=*, VarName=CHILLER ELECTRICITY ENERGY, Frequency=
   *************
   ************* ===== Recurring Error Summary =====
   ************* The following recurring error messages occurred.
   *************
   *************  ** Warning ** Actual air mass flow rate is smaller than 25% of water-to-air heat pump coil rated air flow rate.
   *************  **   ~~~   **   This error occurred 526434 total times;
   *************  **   ~~~   **   during Warmup 88836 times;
   *************  **   ~~~   **   during Sizing 0 times.
   *************  **   ~~~   **   Max=6.513788E-002  Min=1.218178E-005
   *************
   *************  ** Warning ** Plant loop falling below lower temperature limit, PlantLoop="ONLYWATERLOOP MIXED WATER LOOP"
   *************  **   ~~~   **   This error occurred 45886 total times;
   *************  **   ~~~   **   during Warmup 11326 times;
   *************  **   ~~~   **   during Sizing 0 times.
   *************  **   ~~~   **   Min=-37.805852
   *************
   *************  ** Warning ** GetDensityGlycol: Temperature out of range (too low) for fluid [WATER] density **
   *************  **   ~~~   **   This error occurred 4037458 total times;
   *************  **   ~~~   **   during Warmup 0 times;
   *************  **   ~~~   **   during Sizing 0 times.
   *************  **   ~~~   **   Max=-6.433146E-002 {C}  Min=-37.976675 {C}
   *************
   *************  ** Warning ** GetSpecificHeatGlycol: Temperature out of range (too low) for fluid [WATER] specific heat **
   *************  **   ~~~   **   This error occurred 417608 total times;
   *************  **   ~~~   **   during Warmup 0 times;
   *************  **   ~~~   **   during Sizing 0 times.
   *************  **   ~~~   **   Max=-6.433146E-002 {C}  Min=-37.976675 {C}
   *************
   *************
   ************* ===== Final Error Summary =====
   ************* The following error categories occurred.  Consider correcting or noting.
   ************* Nominally Unused Constructions
   ************* ..The nominally unused constructions warning is provided to alert you to potential conditions that can cause
   ************* ..extra time during simulation. Each construction is calculated by the algorithm indicated in the HeatBalanceAlgorithm
   ************* ..object. You may remove the constructions indicated (when you use the DisplayExtraWarnings option).
   *************
   ************* EnergyPlus Warmup Error Summary. During Warmup: 0 Warning; 0 Severe Errors.
   ************* EnergyPlus Sizing Error Summary. During Sizing: 40 Warning; 0 Severe Errors.
   ************* EnergyPlus Completed Successfully-- 5027475 Warning; 0 Severe Errors; Elapsed Time=00hr 01min 11.89sec
