Program Version,EnergyPlus, Version 22.2.0-c249759bad, YMD=2023.04.03 12:50,
   ** Warning ** Output:PreprocessorMessage="ExpandObjects" has the following Warning condition:
   **   ~~~   ** Cannot find Energy+.idd as specified in Energy+.ini.
   ** Warning ** Output:PreprocessorMessage="ExpandObjects" has the following Warning conditions:
   **   ~~~   ** Since the Energy+.IDD file cannot be read no range or choice checking was
   **   ~~~   ** performed.
   ************* Beginning Zone Sizing Calculations
   ** Warning ** Site:GroundTemperature:BuildingSurface: Some values fall outside the range of 15-25C.
   **   ~~~   ** These values may be inappropriate.  Please consult the Input Output Reference for more details.
   ** Warning ** ProcessScheduleInput: Schedule:Compact="GENERIC.ALWAYS1", Schedule Type Limits Name="ANYNUMBER" not found -- will not be validated
   ** Warning ** ProcessScheduleInput: Schedule:Compact="GENERIC.ALWAYS01", Schedule Type Limits Name="ANYNUMBER" not found -- will not be validated
   ** Warning ** ProcessScheduleInput: Schedule:Compact="OFFICE.COOLINGSETPOINT", Schedule Type Limits Name="ANYNUMBER" not found -- will not be validated
   ** Warning ** ProcessScheduleInput: Schedule:Compact="OFFICE.ELECTRICEQUIPMENT", Schedule Type Limits Name="ANYNUMBER" not found -- will not be validated
   ** Warning ** ProcessScheduleInput: Schedule:Compact="OFFICE.LIGHTS", Schedule Type Limits Name="ANYNUMBER" not found -- will not be validated
   ** Warning ** ProcessScheduleInput: Schedule:Compact="OFFICE.PEOPLE", Schedule Type Limits Name="ANYNUMBER" not found -- will not be validated
   ** Warning ** ProcessScheduleInput: Schedule:Compact="OFFICE.ACTIVITY", Schedule Type Limits Name="ANYNUMBER" not found -- will not be validated
   ** Warning ** ProcessScheduleInput: Schedule:Compact="STAIRS.COOLINGSETPOINT", Schedule Type Limits Name="ANYNUMBER" not found -- will not be validated
   ** Warning ** ProcessScheduleInput: Schedule:Compact="STAIRS.ELECTRICEQUIPMENT", Schedule Type Limits Name="ANYNUMBER" not found -- will not be validated
   ** Warning ** ProcessScheduleInput: Schedule:Compact="STAIRS.LIGHTS", Schedule Type Limits Name="ANYNUMBER" not found -- will not be validated
   ** Warning ** ProcessScheduleInput: Schedule:Compact="STAIRS.PEOPLE", Schedule Type Limits Name="ANYNUMBER" not found -- will not be validated
   ** Warning ** ProcessScheduleInput: Schedule:Compact="STAIRS.ACTIVITY", Schedule Type Limits Name="ANYNUMBER" not found -- will not be validated
   ** Warning ** ProcessScheduleInput: Schedule:Compact="TOILET.HEATINGSETPOINT", Schedule Type Limits Name="ANYNUMBER" not found -- will not be validated
   ** Warning ** ProcessScheduleInput: Schedule:Compact="TOILET.COOLINGSETPOINT", Schedule Type Limits Name="ANYNUMBER" not found -- will not be validated
   ** Warning ** ProcessScheduleInput: Schedule:Compact="TOILET.ELECTRICEQUIPMENT", Schedule Type Limits Name="ANYNUMBER" not found -- will not be validated
   ** Warning ** ProcessScheduleInput: Schedule:Compact="TOILET.LIGHTS", Schedule Type Limits Name="ANYNUMBER" not found -- will not be validated
   ** Warning ** ProcessScheduleInput: Schedule:Compact="TOILET.PEOPLE", Schedule Type Limits Name="ANYNUMBER" not found -- will not be validated
   ** Warning ** ProcessScheduleInput: Schedule:Compact="TOILET.ACTIVITY", Schedule Type Limits Name="ANYNUMBER" not found -- will not be validated
   ** Warning ** ProcessScheduleInput: Schedule:Compact="SERVICE.HEATINGSETPOINT", Schedule Type Limits Name="ANYNUMBER" not found -- will not be validated
   ** Warning ** ProcessScheduleInput: Schedule:Compact="SERVICE.COOLINGSETPOINT", Schedule Type Limits Name="ANYNUMBER" not found -- will not be validated
   ** Warning ** ProcessScheduleInput: Schedule:Compact="SERVICE.ELECTRICEQUIPMENT", Schedule Type Limits Name="ANYNUMBER" not found -- will not be validated
   ** Warning ** ProcessScheduleInput: Schedule:Compact="SERVICE.LIGHTS", Schedule Type Limits Name="ANYNUMBER" not found -- will not be validated
   ** Warning ** ProcessScheduleInput: Schedule:Compact="SERVICE.PEOPLE", Schedule Type Limits Name="ANYNUMBER" not found -- will not be validated
   ** Warning ** ProcessScheduleInput: Schedule:Compact="SERVICE.ACTIVITY", Schedule Type Limits Name="ANYNUMBER" not found -- will not be validated
   ** Warning ** ProcessScheduleInput: Schedule:Compact="CORRIDOR.COOLINGSETPOINT", Schedule Type Limits Name="ANYNUMBER" not found -- will not be validated
   ** Warning ** ProcessScheduleInput: Schedule:Compact="CORRIDOR.ELECTRICEQUIPMENT", Schedule Type Limits Name="ANYNUMBER" not found -- will not be validated
   ** Warning ** ProcessScheduleInput: Schedule:Compact="CORRIDOR.LIGHTS", Schedule Type Limits Name="ANYNUMBER" not found -- will not be validated
   ** Warning ** ProcessScheduleInput: Schedule:Compact="CORRIDOR.PEOPLE", Schedule Type Limits Name="ANYNUMBER" not found -- will not be validated
   ** Warning ** ProcessScheduleInput: Schedule:Compact="CORRIDOR.ACTIVITY", Schedule Type Limits Name="ANYNUMBER" not found -- will not be validated
   ** Warning ** ProcessScheduleInput: Schedule:Compact="TECHNIC.HEATINGSETPOINT", Schedule Type Limits Name="ANYNUMBER" not found -- will not be validated
   ** Warning ** ProcessScheduleInput: Schedule:Compact="TECHNIC.COOLINGSETPOINT", Schedule Type Limits Name="ANYNUMBER" not found -- will not be validated
   ** Warning ** ProcessScheduleInput: Schedule:Compact="TECHNIC.ELECTRICEQUIPMENT", Schedule Type Limits Name="ANYNUMBER" not found -- will not be validated
   ** Warning ** ProcessScheduleInput: Schedule:Compact="TECHNIC.LIGHTS", Schedule Type Limits Name="ANYNUMBER" not found -- will not be validated
   ** Warning ** ProcessScheduleInput: Schedule:Compact="TECHNIC.PEOPLE", Schedule Type Limits Name="ANYNUMBER" not found -- will not be validated
   ** Warning ** ProcessScheduleInput: Schedule:Compact="TECHNIC.ACTIVITY", Schedule Type Limits Name="ANYNUMBER" not found -- will not be validated
   ** Warning ** ProcessScheduleInput: Schedule:Compact="OFFICE.HEATINGSETPOINT", Schedule Type Limits Name="ANYNUMBER" not found -- will not be validated
   ** Warning ** ProcessScheduleInput: Schedule:Compact="CORRIDOR.HEATINGSETPOINT", Schedule Type Limits Name="ANYNUMBER" not found -- will not be validated
   ** Warning ** ProcessScheduleInput: Schedule:Compact="STAIRS.HEATINGSETPOINT", Schedule Type Limits Name="ANYNUMBER" not found -- will not be validated
   ** Warning ** CheckUsedConstructions: There are 4 nominally unused constructions in input.
   **   ~~~   ** Each Unused construction is shown.
   ************* Construction=WALLEXTERNAL
   ************* Construction=FLOORGROUND
   ************* Construction=ROOF
   ************* Construction=WINDOW
   ************* Beginning Plant Sizing Calculations
   ** Warning ** COIL:COOLING:WATERTOAIRHEATPUMP:EQUATIONFIT "OFFICE-0-0 WAHP COOLING COIL"
   **   ~~~   ** SizeWaterToAirCoil: Rated Sensible Cooling Capacity > Rated Total Cooling Capacity
   **   ~~~   ** Both of these capacity inputs have been autosized.
   **   ~~~   ** Rated Sensible Cooling Capacity at Rated Conditions = 2577.66 W
   **   ~~~   ** Rated Total Cooling Capacity at Rated Conditions    = 1975.75 W
   **   ~~~   ** See eio file for further details.
   **   ~~~   ** Check Total and Sensible Cooling Capacity coefficients in curves to ensure they are accurate.
   **   ~~~   ** Check Zone and System Sizing objects to verify sizing inputs.
   **   ~~~   ** Sizing statistics:
   **   ~~~   ** Rated entering Air Wet-Bulb Temperature = 19.000 C
   **   ~~~   ** Peak entering Air Wet-Bulb Temperature = 17.587 C
   **   ~~~   ** Entering Water Temperature used = 30.000 C
   **   ~~~   ** Design air and water flow rates = 1.0
   **   ~~~   ** Rated ratio of load-side air wet-bulb temperature to 283.15 C (Rated ratioTWB) = 1.031
   **   ~~~   ** Rated ratio of source-side inlet water temperature to 283.15 C (Rated ratioTS)  = 1.070
   **   ~~~   ** Peak ratio of load-side air wet-bulb temperature to 283.15 C (Peak ratioTWB) = 1.026
   **   ~~~   ** Peak ratio of source-side inlet water temperature to 283.15 C (Peak ratioTS)  = 1.084
   **   ~~~   ** Rated Total Cooling Capacity Modifier = 1.00000
   **   ~~~   ** Peak Design Total Cooling Capacity Modifier = 0.91991
   **   ~~~   ** Rated Sensible Cooling Capacity Modifier = 1.00000
   **   ~~~   ** Peak Design Sensible Cooling Capacity Modifier = 0.98551
   **   ~~~   ** ...Rated Total Cooling Capacity at Rated Conditions = Total Peak Design Load * Rated Total Cooling Capacity Modifier  / Peak Design Total Cooling Capacity Modifier
   **   ~~~   ** ...Rated Sensible Cooling Capacity at Rated Conditions = Peak Design Sensible Load * Rated Sensible Cooling Capacity Modifier  / Peak Design Sensible Cooling Capacity Modifier
   **   ~~~   ** Carefully review the Load Side Total, Sensible, and Latent heat transfer rates
   **   ~~~   ** ... to ensure they meet the expected manufacturers performance specifications.
   ** Warning ** COIL:HEATING:WATERTOAIRHEATPUMP:EQUATIONFIT "OFFICE-0-0 WAHP HEATING COIL"
   **   ~~~   ** ...used with COIL:COOLING:WATERTOAIRHEATPUMP:EQUATIONFIT "OFFICE-0-0 WAHP COOLING COIL"
   **   ~~~   ** ...heating capacity is disproportionate (> 20% different) to total cooling capacity
   **   ~~~   ** ...heating capacity = 4000.000 W
   **   ~~~   ** ...cooling capacity = 1975.753 W
   ** Warning ** COIL:HEATING:WATERTOAIRHEATPUMP:EQUATIONFIT "OFFICE-0-1 WAHP HEATING COIL"
   **   ~~~   ** ...used with COIL:COOLING:WATERTOAIRHEATPUMP:EQUATIONFIT "OFFICE-0-1 WAHP COOLING COIL"
   **   ~~~   ** ...heating capacity is disproportionate (> 20% different) to total cooling capacity
   **   ~~~   ** ...heating capacity = 4000.000 W
   **   ~~~   ** ...cooling capacity = 1754.339 W
   ** Warning ** COIL:COOLING:WATERTOAIRHEATPUMP:EQUATIONFIT "OFFICE-0-2 WAHP COOLING COIL"
   **   ~~~   ** SizeWaterToAirCoil: Rated Sensible Cooling Capacity > Rated Total Cooling Capacity
   **   ~~~   ** Both of these capacity inputs have been autosized.
   **   ~~~   ** Rated Sensible Cooling Capacity at Rated Conditions = 1923.00 W
   **   ~~~   ** Rated Total Cooling Capacity at Rated Conditions    = 1492.70 W
   **   ~~~   ** See eio file for further details.
   **   ~~~   ** Check Total and Sensible Cooling Capacity coefficients in curves to ensure they are accurate.
   **   ~~~   ** Check Zone and System Sizing objects to verify sizing inputs.
   **   ~~~   ** Sizing statistics:
   **   ~~~   ** Rated entering Air Wet-Bulb Temperature = 19.000 C
   **   ~~~   ** Peak entering Air Wet-Bulb Temperature = 17.424 C
   **   ~~~   ** Entering Water Temperature used = 30.000 C
   **   ~~~   ** Design air and water flow rates = 1.0
   **   ~~~   ** Rated ratio of load-side air wet-bulb temperature to 283.15 C (Rated ratioTWB) = 1.031
   **   ~~~   ** Rated ratio of source-side inlet water temperature to 283.15 C (Rated ratioTS)  = 1.070
   **   ~~~   ** Peak ratio of load-side air wet-bulb temperature to 283.15 C (Peak ratioTWB) = 1.026
   **   ~~~   ** Peak ratio of source-side inlet water temperature to 283.15 C (Peak ratioTS)  = 1.084
   **   ~~~   ** Rated Total Cooling Capacity Modifier = 1.00000
   **   ~~~   ** Peak Design Total Cooling Capacity Modifier = 0.91356
   **   ~~~   ** Rated Sensible Cooling Capacity Modifier = 1.00000
   **   ~~~   ** Peak Design Sensible Cooling Capacity Modifier = 0.89811
   **   ~~~   ** ...Rated Total Cooling Capacity at Rated Conditions = Total Peak Design Load * Rated Total Cooling Capacity Modifier  / Peak Design Total Cooling Capacity Modifier
   **   ~~~   ** ...Rated Sensible Cooling Capacity at Rated Conditions = Peak Design Sensible Load * Rated Sensible Cooling Capacity Modifier  / Peak Design Sensible Cooling Capacity Modifier
   **   ~~~   ** Carefully review the Load Side Total, Sensible, and Latent heat transfer rates
   **   ~~~   ** ... to ensure they meet the expected manufacturers performance specifications.
   ** Warning ** COIL:HEATING:WATERTOAIRHEATPUMP:EQUATIONFIT "OFFICE-0-2 WAHP HEATING COIL"
   **   ~~~   ** ...used with COIL:COOLING:WATERTOAIRHEATPUMP:EQUATIONFIT "OFFICE-0-2 WAHP COOLING COIL"
   **   ~~~   ** ...heating capacity is disproportionate (> 20% different) to total cooling capacity
   **   ~~~   ** ...heating capacity = 4000.000 W
   **   ~~~   ** ...cooling capacity = 1492.702 W
   ** Warning ** COIL:COOLING:WATERTOAIRHEATPUMP:EQUATIONFIT "OFFICE-0-3 WAHP COOLING COIL"
   **   ~~~   ** SizeWaterToAirCoil: Rated Sensible Cooling Capacity > Rated Total Cooling Capacity
   **   ~~~   ** Both of these capacity inputs have been autosized.
   **   ~~~   ** Rated Sensible Cooling Capacity at Rated Conditions = 2090.20 W
   **   ~~~   ** Rated Total Cooling Capacity at Rated Conditions    = 1480.41 W
   **   ~~~   ** See eio file for further details.
   **   ~~~   ** Check Total and Sensible Cooling Capacity coefficients in curves to ensure they are accurate.
   **   ~~~   ** Check Zone and System Sizing objects to verify sizing inputs.
   **   ~~~   ** Sizing statistics:
   **   ~~~   ** Rated entering Air Wet-Bulb Temperature = 19.000 C
   **   ~~~   ** Peak entering Air Wet-Bulb Temperature = 17.461 C
   **   ~~~   ** Entering Water Temperature used = 30.000 C
   **   ~~~   ** Design air and water flow rates = 1.0
   **   ~~~   ** Rated ratio of load-side air wet-bulb temperature to 283.15 C (Rated ratioTWB) = 1.031
   **   ~~~   ** Rated ratio of source-side inlet water temperature to 283.15 C (Rated ratioTS)  = 1.070
   **   ~~~   ** Peak ratio of load-side air wet-bulb temperature to 283.15 C (Peak ratioTWB) = 1.026
   **   ~~~   ** Peak ratio of source-side inlet water temperature to 283.15 C (Peak ratioTS)  = 1.084
   **   ~~~   ** Rated Total Cooling Capacity Modifier = 1.00000
   **   ~~~   ** Peak Design Total Cooling Capacity Modifier = 0.91499
   **   ~~~   ** Rated Sensible Cooling Capacity Modifier = 1.00000
   **   ~~~   ** Peak Design Sensible Cooling Capacity Modifier = 0.93189
   **   ~~~   ** ...Rated Total Cooling Capacity at Rated Conditions = Total Peak Design Load * Rated Total Cooling Capacity Modifier  / Peak Design Total Cooling Capacity Modifier
   **   ~~~   ** ...Rated Sensible Cooling Capacity at Rated Conditions = Peak Design Sensible Load * Rated Sensible Cooling Capacity Modifier  / Peak Design Sensible Cooling Capacity Modifier
   **   ~~~   ** Carefully review the Load Side Total, Sensible, and Latent heat transfer rates
   **   ~~~   ** ... to ensure they meet the expected manufacturers performance specifications.
   ** Warning ** COIL:HEATING:WATERTOAIRHEATPUMP:EQUATIONFIT "OFFICE-0-3 WAHP HEATING COIL"
   **   ~~~   ** ...used with COIL:COOLING:WATERTOAIRHEATPUMP:EQUATIONFIT "OFFICE-0-3 WAHP COOLING COIL"
   **   ~~~   ** ...heating capacity is disproportionate (> 20% different) to total cooling capacity
   **   ~~~   ** ...heating capacity = 4000.000 W
   **   ~~~   ** ...cooling capacity = 1480.416 W
   ** Warning ** COIL:HEATING:WATERTOAIRHEATPUMP:EQUATIONFIT "TOILET-0-0 WAHP HEATING COIL"
   **   ~~~   ** ...used with COIL:COOLING:WATERTOAIRHEATPUMP:EQUATIONFIT "TOILET-0-0 WAHP COOLING COIL"
   **   ~~~   ** ...heating capacity is disproportionate (> 20% different) to total cooling capacity
   **   ~~~   ** ...heating capacity = 4000.000 W
   **   ~~~   ** ...cooling capacity = 239.479 W
   ** Warning ** COIL:HEATING:WATERTOAIRHEATPUMP:EQUATIONFIT "STAIRS-0-0 WAHP HEATING COIL"
   **   ~~~   ** ...used with COIL:COOLING:WATERTOAIRHEATPUMP:EQUATIONFIT "STAIRS-0-0 WAHP COOLING COIL"
   **   ~~~   ** ...heating capacity is disproportionate (> 20% different) to total cooling capacity
   **   ~~~   ** ...heating capacity = 4000.000 W
   **   ~~~   ** ...cooling capacity = 550.229 W
   ** Warning ** COIL:COOLING:WATERTOAIRHEATPUMP:EQUATIONFIT "TECHNIC-0-0 WAHP COOLING COIL"
   **   ~~~   ** SizeWaterToAirCoil: Rated Sensible Cooling Capacity > Rated Total Cooling Capacity
   **   ~~~   ** Both of these capacity inputs have been autosized.
   **   ~~~   ** Rated Sensible Cooling Capacity at Rated Conditions = 607.74 W
   **   ~~~   ** Rated Total Cooling Capacity at Rated Conditions    = 358.33 W
   **   ~~~   ** See eio file for further details.
   **   ~~~   ** Check Total and Sensible Cooling Capacity coefficients in curves to ensure they are accurate.
   **   ~~~   ** Check Zone and System Sizing objects to verify sizing inputs.
   **   ~~~   ** Sizing statistics:
   **   ~~~   ** Rated entering Air Wet-Bulb Temperature = 19.000 C
   **   ~~~   ** Peak entering Air Wet-Bulb Temperature = 16.388 C
   **   ~~~   ** Entering Water Temperature used = 30.000 C
   **   ~~~   ** Design air and water flow rates = 1.0
   **   ~~~   ** Rated ratio of load-side air wet-bulb temperature to 283.15 C (Rated ratioTWB) = 1.031
   **   ~~~   ** Rated ratio of source-side inlet water temperature to 283.15 C (Rated ratioTS)  = 1.070
   **   ~~~   ** Peak ratio of load-side air wet-bulb temperature to 283.15 C (Peak ratioTWB) = 1.022
   **   ~~~   ** Peak ratio of source-side inlet water temperature to 283.15 C (Peak ratioTS)  = 1.084
   **   ~~~   ** Rated Total Cooling Capacity Modifier = 1.00000
   **   ~~~   ** Peak Design Total Cooling Capacity Modifier = 0.87297
   **   ~~~   ** Rated Sensible Cooling Capacity Modifier = 1.00000
   **   ~~~   ** Peak Design Sensible Cooling Capacity Modifier = 0.96445
   **   ~~~   ** ...Rated Total Cooling Capacity at Rated Conditions = Total Peak Design Load * Rated Total Cooling Capacity Modifier  / Peak Design Total Cooling Capacity Modifier
   **   ~~~   ** ...Rated Sensible Cooling Capacity at Rated Conditions = Peak Design Sensible Load * Rated Sensible Cooling Capacity Modifier  / Peak Design Sensible Cooling Capacity Modifier
   **   ~~~   ** Carefully review the Load Side Total, Sensible, and Latent heat transfer rates
   **   ~~~   ** ... to ensure they meet the expected manufacturers performance specifications.
   ** Warning ** COIL:HEATING:WATERTOAIRHEATPUMP:EQUATIONFIT "TECHNIC-0-0 WAHP HEATING COIL"
   **   ~~~   ** ...used with COIL:COOLING:WATERTOAIRHEATPUMP:EQUATIONFIT "TECHNIC-0-0 WAHP COOLING COIL"
   **   ~~~   ** ...heating capacity is disproportionate (> 20% different) to total cooling capacity
   **   ~~~   ** ...heating capacity = 4000.000 W
   **   ~~~   ** ...cooling capacity = 358.331 W
   ** Warning ** COIL:HEATING:WATERTOAIRHEATPUMP:EQUATIONFIT "CORRIDOR-0-0 WAHP HEATING COIL"
   **   ~~~   ** ...used with COIL:COOLING:WATERTOAIRHEATPUMP:EQUATIONFIT "CORRIDOR-0-0 WAHP COOLING COIL"
   **   ~~~   ** ...heating capacity is disproportionate (> 20% different) to total cooling capacity
   **   ~~~   ** ...heating capacity = 4000.000 W
   **   ~~~   ** ...cooling capacity = 1533.791 W
   ** Warning ** COIL:COOLING:WATERTOAIRHEATPUMP:EQUATIONFIT "OFFICE-1-0 WAHP COOLING COIL"
   **   ~~~   ** SizeWaterToAirCoil: Rated Sensible Cooling Capacity > Rated Total Cooling Capacity
   **   ~~~   ** Both of these capacity inputs have been autosized.
   **   ~~~   ** Rated Sensible Cooling Capacity at Rated Conditions = 2240.85 W
   **   ~~~   ** Rated Total Cooling Capacity at Rated Conditions    = 1062.25 W
   **   ~~~   ** See eio file for further details.
   **   ~~~   ** Check Total and Sensible Cooling Capacity coefficients in curves to ensure they are accurate.
   **   ~~~   ** Check Zone and System Sizing objects to verify sizing inputs.
   **   ~~~   ** Sizing statistics:
   **   ~~~   ** Rated entering Air Wet-Bulb Temperature = 19.000 C
   **   ~~~   ** Peak entering Air Wet-Bulb Temperature = 17.408 C
   **   ~~~   ** Entering Water Temperature used = 30.000 C
   **   ~~~   ** Design air and water flow rates = 1.0
   **   ~~~   ** Rated ratio of load-side air wet-bulb temperature to 283.15 C (Rated ratioTWB) = 1.031
   **   ~~~   ** Rated ratio of source-side inlet water temperature to 283.15 C (Rated ratioTS)  = 1.070
   **   ~~~   ** Peak ratio of load-side air wet-bulb temperature to 283.15 C (Peak ratioTWB) = 1.026
   **   ~~~   ** Peak ratio of source-side inlet water temperature to 283.15 C (Peak ratioTS)  = 1.084
   **   ~~~   ** Rated Total Cooling Capacity Modifier = 1.00000
   **   ~~~   ** Peak Design Total Cooling Capacity Modifier = 0.91293
   **   ~~~   ** Rated Sensible Cooling Capacity Modifier = 1.00000
   **   ~~~   ** Peak Design Sensible Cooling Capacity Modifier = 0.98890
   **   ~~~   ** ...Rated Total Cooling Capacity at Rated Conditions = Total Peak Design Load * Rated Total Cooling Capacity Modifier  / Peak Design Total Cooling Capacity Modifier
   **   ~~~   ** ...Rated Sensible Cooling Capacity at Rated Conditions = Peak Design Sensible Load * Rated Sensible Cooling Capacity Modifier  / Peak Design Sensible Cooling Capacity Modifier
   **   ~~~   ** Carefully review the Load Side Total, Sensible, and Latent heat transfer rates
   **   ~~~   ** ... to ensure they meet the expected manufacturers performance specifications.
   ** Warning ** COIL:HEATING:WATERTOAIRHEATPUMP:EQUATIONFIT "OFFICE-1-0 WAHP HEATING COIL"
   **   ~~~   ** ...used with COIL:COOLING:WATERTOAIRHEATPUMP:EQUATIONFIT "OFFICE-1-0 WAHP COOLING COIL"
   **   ~~~   ** ...heating capacity is disproportionate (> 20% different) to total cooling capacity
   **   ~~~   ** ...heating capacity = 4000.000 W
   **   ~~~   ** ...cooling capacity = 1062.256 W
   ** Warning ** COIL:COOLING:WATERTOAIRHEATPUMP:EQUATIONFIT "OFFICE-1-1 WAHP COOLING COIL"
   **   ~~~   ** SizeWaterToAirCoil: Rated Sensible Cooling Capacity > Rated Total Cooling Capacity
   **   ~~~   ** Both of these capacity inputs have been autosized.
   **   ~~~   ** Rated Sensible Cooling Capacity at Rated Conditions = 1978.22 W
   **   ~~~   ** Rated Total Cooling Capacity at Rated Conditions    = 1175.97 W
   **   ~~~   ** See eio file for further details.
   **   ~~~   ** Check Total and Sensible Cooling Capacity coefficients in curves to ensure they are accurate.
   **   ~~~   ** Check Zone and System Sizing objects to verify sizing inputs.
   **   ~~~   ** Sizing statistics:
   **   ~~~   ** Rated entering Air Wet-Bulb Temperature = 19.000 C
   **   ~~~   ** Peak entering Air Wet-Bulb Temperature = 17.693 C
   **   ~~~   ** Entering Water Temperature used = 30.000 C
   **   ~~~   ** Design air and water flow rates = 1.0
   **   ~~~   ** Rated ratio of load-side air wet-bulb temperature to 283.15 C (Rated ratioTWB) = 1.031
   **   ~~~   ** Rated ratio of source-side inlet water temperature to 283.15 C (Rated ratioTS)  = 1.070
   **   ~~~   ** Peak ratio of load-side air wet-bulb temperature to 283.15 C (Peak ratioTWB) = 1.027
   **   ~~~   ** Peak ratio of source-side inlet water temperature to 283.15 C (Peak ratioTS)  = 1.084
   **   ~~~   ** Rated Total Cooling Capacity Modifier = 1.00000
   **   ~~~   ** Peak Design Total Cooling Capacity Modifier = 0.92410
   **   ~~~   ** Rated Sensible Cooling Capacity Modifier = 1.00000
   **   ~~~   ** Peak Design Sensible Cooling Capacity Modifier = 0.99075
   **   ~~~   ** ...Rated Total Cooling Capacity at Rated Conditions = Total Peak Design Load * Rated Total Cooling Capacity Modifier  / Peak Design Total Cooling Capacity Modifier
   **   ~~~   ** ...Rated Sensible Cooling Capacity at Rated Conditions = Peak Design Sensible Load * Rated Sensible Cooling Capacity Modifier  / Peak Design Sensible Cooling Capacity Modifier
   **   ~~~   ** Carefully review the Load Side Total, Sensible, and Latent heat transfer rates
   **   ~~~   ** ... to ensure they meet the expected manufacturers performance specifications.
   ** Warning ** COIL:HEATING:WATERTOAIRHEATPUMP:EQUATIONFIT "OFFICE-1-1 WAHP HEATING COIL"
   **   ~~~   ** ...used with COIL:COOLING:WATERTOAIRHEATPUMP:EQUATIONFIT "OFFICE-1-1 WAHP COOLING COIL"
   **   ~~~   ** ...heating capacity is disproportionate (> 20% different) to total cooling capacity
   **   ~~~   ** ...heating capacity = 4000.000 W
   **   ~~~   ** ...cooling capacity = 1175.975 W
   ** Warning ** COIL:COOLING:WATERTOAIRHEATPUMP:EQUATIONFIT "OFFICE-1-2 WAHP COOLING COIL"
   **   ~~~   ** SizeWaterToAirCoil: Rated Sensible Cooling Capacity > Rated Total Cooling Capacity
   **   ~~~   ** Both of these capacity inputs have been autosized.
   **   ~~~   ** Rated Sensible Cooling Capacity at Rated Conditions = 2516.76 W
   **   ~~~   ** Rated Total Cooling Capacity at Rated Conditions    = 885.70 W
   **   ~~~   ** See eio file for further details.
   **   ~~~   ** Check Total and Sensible Cooling Capacity coefficients in curves to ensure they are accurate.
   **   ~~~   ** Check Zone and System Sizing objects to verify sizing inputs.
   **   ~~~   ** Sizing statistics:
   **   ~~~   ** Rated entering Air Wet-Bulb Temperature = 19.000 C
   **   ~~~   ** Peak entering Air Wet-Bulb Temperature = 17.102 C
   **   ~~~   ** Entering Water Temperature used = 30.000 C
   **   ~~~   ** Design air and water flow rates = 1.0
   **   ~~~   ** Rated ratio of load-side air wet-bulb temperature to 283.15 C (Rated ratioTWB) = 1.031
   **   ~~~   ** Rated ratio of source-side inlet water temperature to 283.15 C (Rated ratioTS)  = 1.070
   **   ~~~   ** Peak ratio of load-side air wet-bulb temperature to 283.15 C (Peak ratioTWB) = 1.025
   **   ~~~   ** Peak ratio of source-side inlet water temperature to 283.15 C (Peak ratioTS)  = 1.084
   **   ~~~   ** Rated Total Cooling Capacity Modifier = 1.00000
   **   ~~~   ** Peak Design Total Cooling Capacity Modifier = 0.90093
   **   ~~~   ** Rated Sensible Cooling Capacity Modifier = 1.00000
   **   ~~~   ** Peak Design Sensible Cooling Capacity Modifier = 0.91783
   **   ~~~   ** ...Rated Total Cooling Capacity at Rated Conditions = Total Peak Design Load * Rated Total Cooling Capacity Modifier  / Peak Design Total Cooling Capacity Modifier
   **   ~~~   ** ...Rated Sensible Cooling Capacity at Rated Conditions = Peak Design Sensible Load * Rated Sensible Cooling Capacity Modifier  / Peak Design Sensible Cooling Capacity Modifier
   **   ~~~   ** Carefully review the Load Side Total, Sensible, and Latent heat transfer rates
   **   ~~~   ** ... to ensure they meet the expected manufacturers performance specifications.
   ** Warning ** COIL:HEATING:WATERTOAIRHEATPUMP:EQUATIONFIT "OFFICE-1-2 WAHP HEATING COIL"
   **   ~~~   ** ...used with COIL:COOLING:WATERTOAIRHEATPUMP:EQUATIONFIT "OFFICE-1-2 WAHP COOLING COIL"
   **   ~~~   ** ...heating capacity is disproportionate (> 20% different) to total cooling capacity
   **   ~~~   ** ...heating capacity = 4000.000 W
   **   ~~~   ** ...cooling capacity = 885.704 W
   ** Warning ** COIL:COOLING:WATERTOAIRHEATPUMP:EQUATIONFIT "OFFICE-1-3 WAHP COOLING COIL"
   **   ~~~   ** SizeWaterToAirCoil: Rated Sensible Cooling Capacity > Rated Total Cooling Capacity
   **   ~~~   ** Both of these capacity inputs have been autosized.
   **   ~~~   ** Rated Sensible Cooling Capacity at Rated Conditions = 2655.40 W
   **   ~~~   ** Rated Total Cooling Capacity at Rated Conditions    = 1006.46 W
   **   ~~~   ** See eio file for further details.
   **   ~~~   ** Check Total and Sensible Cooling Capacity coefficients in curves to ensure they are accurate.
   **   ~~~   ** Check Zone and System Sizing objects to verify sizing inputs.
   **   ~~~   ** Sizing statistics:
   **   ~~~   ** Rated entering Air Wet-Bulb Temperature = 19.000 C
   **   ~~~   ** Peak entering Air Wet-Bulb Temperature = 17.091 C
   **   ~~~   ** Entering Water Temperature used = 30.000 C
   **   ~~~   ** Design air and water flow rates = 1.0
   **   ~~~   ** Rated ratio of load-side air wet-bulb temperature to 283.15 C (Rated ratioTWB) = 1.031
   **   ~~~   ** Rated ratio of source-side inlet water temperature to 283.15 C (Rated ratioTS)  = 1.070
   **   ~~~   ** Peak ratio of load-side air wet-bulb temperature to 283.15 C (Peak ratioTWB) = 1.025
   **   ~~~   ** Peak ratio of source-side inlet water temperature to 283.15 C (Peak ratioTS)  = 1.084
   **   ~~~   ** Rated Total Cooling Capacity Modifier = 1.00000
   **   ~~~   ** Peak Design Total Cooling Capacity Modifier = 0.90049
   **   ~~~   ** Rated Sensible Cooling Capacity Modifier = 1.00000
   **   ~~~   ** Peak Design Sensible Cooling Capacity Modifier = 0.94313
   **   ~~~   ** ...Rated Total Cooling Capacity at Rated Conditions = Total Peak Design Load * Rated Total Cooling Capacity Modifier  / Peak Design Total Cooling Capacity Modifier
   **   ~~~   ** ...Rated Sensible Cooling Capacity at Rated Conditions = Peak Design Sensible Load * Rated Sensible Cooling Capacity Modifier  / Peak Design Sensible Cooling Capacity Modifier
   **   ~~~   ** Carefully review the Load Side Total, Sensible, and Latent heat transfer rates
   **   ~~~   ** ... to ensure they meet the expected manufacturers performance specifications.
   ** Warning ** COIL:HEATING:WATERTOAIRHEATPUMP:EQUATIONFIT "OFFICE-1-3 WAHP HEATING COIL"
   **   ~~~   ** ...used with COIL:COOLING:WATERTOAIRHEATPUMP:EQUATIONFIT "OFFICE-1-3 WAHP COOLING COIL"
   **   ~~~   ** ...heating capacity is disproportionate (> 20% different) to total cooling capacity
   **   ~~~   ** ...heating capacity = 4000.000 W
   **   ~~~   ** ...cooling capacity = 1006.463 W
   ** Warning ** COIL:COOLING:WATERTOAIRHEATPUMP:EQUATIONFIT "TOILET-1-0 WAHP COOLING COIL"
   **   ~~~   ** SizeWaterToAirCoil: Rated Sensible Cooling Capacity > Rated Total Cooling Capacity
   **   ~~~   ** Both of these capacity inputs have been autosized.
   **   ~~~   ** Rated Sensible Cooling Capacity at Rated Conditions = 283.52 W
   **   ~~~   ** Rated Total Cooling Capacity at Rated Conditions    = 13.83 W
   **   ~~~   ** See eio file for further details.
   **   ~~~   ** Check Total and Sensible Cooling Capacity coefficients in curves to ensure they are accurate.
   **   ~~~   ** Check Zone and System Sizing objects to verify sizing inputs.
   **   ~~~   ** Sizing statistics:
   **   ~~~   ** Rated entering Air Wet-Bulb Temperature = 19.000 C
   **   ~~~   ** Peak entering Air Wet-Bulb Temperature = 17.402 C
   **   ~~~   ** Entering Water Temperature used = 30.000 C
   **   ~~~   ** Design air and water flow rates = 1.0
   **   ~~~   ** Rated ratio of load-side air wet-bulb temperature to 283.15 C (Rated ratioTWB) = 1.031
   **   ~~~   ** Rated ratio of source-side inlet water temperature to 283.15 C (Rated ratioTS)  = 1.070
   **   ~~~   ** Peak ratio of load-side air wet-bulb temperature to 283.15 C (Peak ratioTWB) = 1.026
   **   ~~~   ** Peak ratio of source-side inlet water temperature to 283.15 C (Peak ratioTS)  = 1.084
   **   ~~~   ** Rated Total Cooling Capacity Modifier = 1.00000
   **   ~~~   ** Peak Design Total Cooling Capacity Modifier = 0.91268
   **   ~~~   ** Rated Sensible Cooling Capacity Modifier = 1.00000
   **   ~~~   ** Peak Design Sensible Cooling Capacity Modifier = 0.99835
   **   ~~~   ** ...Rated Total Cooling Capacity at Rated Conditions = Total Peak Design Load * Rated Total Cooling Capacity Modifier  / Peak Design Total Cooling Capacity Modifier
   **   ~~~   ** ...Rated Sensible Cooling Capacity at Rated Conditions = Peak Design Sensible Load * Rated Sensible Cooling Capacity Modifier  / Peak Design Sensible Cooling Capacity Modifier
   **   ~~~   ** Carefully review the Load Side Total, Sensible, and Latent heat transfer rates
   **   ~~~   ** ... to ensure they meet the expected manufacturers performance specifications.
   ** Warning ** COIL:HEATING:WATERTOAIRHEATPUMP:EQUATIONFIT "TOILET-1-0 WAHP HEATING COIL"
   **   ~~~   ** ...used with COIL:COOLING:WATERTOAIRHEATPUMP:EQUATIONFIT "TOILET-1-0 WAHP COOLING COIL"
   **   ~~~   ** ...heating capacity is disproportionate (> 20% different) to total cooling capacity
   **   ~~~   ** ...heating capacity = 4000.000 W
   **   ~~~   ** ...cooling capacity = 13.839 W
   ** Warning ** COIL:COOLING:WATERTOAIRHEATPUMP:EQUATIONFIT "STAIRS-1-0 WAHP COOLING COIL"
   **   ~~~   ** SizeWaterToAirCoil: Rated Sensible Cooling Capacity > Rated Total Cooling Capacity
   **   ~~~   ** Both of these capacity inputs have been autosized.
   **   ~~~   ** Rated Sensible Cooling Capacity at Rated Conditions = 598.46 W
   **   ~~~   ** Rated Total Cooling Capacity at Rated Conditions    = 427.00 W
   **   ~~~   ** See eio file for further details.
   **   ~~~   ** Check Total and Sensible Cooling Capacity coefficients in curves to ensure they are accurate.
   **   ~~~   ** Check Zone and System Sizing objects to verify sizing inputs.
   **   ~~~   ** Sizing statistics:
   **   ~~~   ** Rated entering Air Wet-Bulb Temperature = 19.000 C
   **   ~~~   ** Peak entering Air Wet-Bulb Temperature = 17.438 C
   **   ~~~   ** Entering Water Temperature used = 30.000 C
   **   ~~~   ** Design air and water flow rates = 1.0
   **   ~~~   ** Rated ratio of load-side air wet-bulb temperature to 283.15 C (Rated ratioTWB) = 1.031
   **   ~~~   ** Rated ratio of source-side inlet water temperature to 283.15 C (Rated ratioTS)  = 1.070
   **   ~~~   ** Peak ratio of load-side air wet-bulb temperature to 283.15 C (Peak ratioTWB) = 1.026
   **   ~~~   ** Peak ratio of source-side inlet water temperature to 283.15 C (Peak ratioTS)  = 1.084
   **   ~~~   ** Rated Total Cooling Capacity Modifier = 1.00000
   **   ~~~   ** Peak Design Total Cooling Capacity Modifier = 0.91409
   **   ~~~   ** Rated Sensible Cooling Capacity Modifier = 1.00000
   **   ~~~   ** Peak Design Sensible Cooling Capacity Modifier = 0.98465
   **   ~~~   ** ...Rated Total Cooling Capacity at Rated Conditions = Total Peak Design Load * Rated Total Cooling Capacity Modifier  / Peak Design Total Cooling Capacity Modifier
   **   ~~~   ** ...Rated Sensible Cooling Capacity at Rated Conditions = Peak Design Sensible Load * Rated Sensible Cooling Capacity Modifier  / Peak Design Sensible Cooling Capacity Modifier
   **   ~~~   ** Carefully review the Load Side Total, Sensible, and Latent heat transfer rates
   **   ~~~   ** ... to ensure they meet the expected manufacturers performance specifications.
   ** Warning ** COIL:HEATING:WATERTOAIRHEATPUMP:EQUATIONFIT "STAIRS-1-0 WAHP HEATING COIL"
   **   ~~~   ** ...used with COIL:COOLING:WATERTOAIRHEATPUMP:EQUATIONFIT "STAIRS-1-0 WAHP COOLING COIL"
   **   ~~~   ** ...heating capacity is disproportionate (> 20% different) to total cooling capacity
   **   ~~~   ** ...heating capacity = 4000.000 W
   **   ~~~   ** ...cooling capacity = 427.006 W
   ** Warning ** COIL:COOLING:WATERTOAIRHEATPUMP:EQUATIONFIT "SERVICE-1-0 WAHP COOLING COIL"
   **   ~~~   ** SizeWaterToAirCoil: Rated Sensible Cooling Capacity > Rated Total Cooling Capacity
   **   ~~~   ** Both of these capacity inputs have been autosized.
   **   ~~~   ** Rated Sensible Cooling Capacity at Rated Conditions = 688.73 W
   **   ~~~   ** Rated Total Cooling Capacity at Rated Conditions    = 350.56 W
   **   ~~~   ** See eio file for further details.
   **   ~~~   ** Check Total and Sensible Cooling Capacity coefficients in curves to ensure they are accurate.
   **   ~~~   ** Check Zone and System Sizing objects to verify sizing inputs.
   **   ~~~   ** Sizing statistics:
   **   ~~~   ** Rated entering Air Wet-Bulb Temperature = 19.000 C
   **   ~~~   ** Peak entering Air Wet-Bulb Temperature = 16.247 C
   **   ~~~   ** Entering Water Temperature used = 30.000 C
   **   ~~~   ** Design air and water flow rates = 1.0
   **   ~~~   ** Rated ratio of load-side air wet-bulb temperature to 283.15 C (Rated ratioTWB) = 1.031
   **   ~~~   ** Rated ratio of source-side inlet water temperature to 283.15 C (Rated ratioTS)  = 1.070
   **   ~~~   ** Peak ratio of load-side air wet-bulb temperature to 283.15 C (Peak ratioTWB) = 1.022
   **   ~~~   ** Peak ratio of source-side inlet water temperature to 283.15 C (Peak ratioTS)  = 1.084
   **   ~~~   ** Rated Total Cooling Capacity Modifier = 1.00000
   **   ~~~   ** Peak Design Total Cooling Capacity Modifier = 0.86747
   **   ~~~   ** Rated Sensible Cooling Capacity Modifier = 1.00000
   **   ~~~   ** Peak Design Sensible Cooling Capacity Modifier = 0.97082
   **   ~~~   ** ...Rated Total Cooling Capacity at Rated Conditions = Total Peak Design Load * Rated Total Cooling Capacity Modifier  / Peak Design Total Cooling Capacity Modifier
   **   ~~~   ** ...Rated Sensible Cooling Capacity at Rated Conditions = Peak Design Sensible Load * Rated Sensible Cooling Capacity Modifier  / Peak Design Sensible Cooling Capacity Modifier
   **   ~~~   ** Carefully review the Load Side Total, Sensible, and Latent heat transfer rates
   **   ~~~   ** ... to ensure they meet the expected manufacturers performance specifications.
   ** Warning ** COIL:HEATING:WATERTOAIRHEATPUMP:EQUATIONFIT "SERVICE-1-0 WAHP HEATING COIL"
   **   ~~~   ** ...used with COIL:COOLING:WATERTOAIRHEATPUMP:EQUATIONFIT "SERVICE-1-0 WAHP COOLING COIL"
   **   ~~~   ** ...heating capacity is disproportionate (> 20% different) to total cooling capacity
   **   ~~~   ** ...heating capacity = 4000.000 W
   **   ~~~   ** ...cooling capacity = 350.565 W
   ** Warning ** COIL:COOLING:WATERTOAIRHEATPUMP:EQUATIONFIT "CORRIDOR-1-0 WAHP COOLING COIL"
   **   ~~~   ** SizeWaterToAirCoil: Rated Sensible Cooling Capacity > Rated Total Cooling Capacity
   **   ~~~   ** Both of these capacity inputs have been autosized.
   **   ~~~   ** Rated Sensible Cooling Capacity at Rated Conditions = 1739.78 W
   **   ~~~   ** Rated Total Cooling Capacity at Rated Conditions    = 524.04 W
   **   ~~~   ** See eio file for further details.
   **   ~~~   ** Check Total and Sensible Cooling Capacity coefficients in curves to ensure they are accurate.
   **   ~~~   ** Check Zone and System Sizing objects to verify sizing inputs.
   **   ~~~   ** Sizing statistics:
   **   ~~~   ** Rated entering Air Wet-Bulb Temperature = 19.000 C
   **   ~~~   ** Peak entering Air Wet-Bulb Temperature = 16.788 C
   **   ~~~   ** Entering Water Temperature used = 30.000 C
   **   ~~~   ** Design air and water flow rates = 1.0
   **   ~~~   ** Rated ratio of load-side air wet-bulb temperature to 283.15 C (Rated ratioTWB) = 1.031
   **   ~~~   ** Rated ratio of source-side inlet water temperature to 283.15 C (Rated ratioTS)  = 1.070
   **   ~~~   ** Peak ratio of load-side air wet-bulb temperature to 283.15 C (Peak ratioTWB) = 1.023
   **   ~~~   ** Peak ratio of source-side inlet water temperature to 283.15 C (Peak ratioTS)  = 1.084
   **   ~~~   ** Rated Total Cooling Capacity Modifier = 1.00000
   **   ~~~   ** Peak Design Total Cooling Capacity Modifier = 0.88863
   **   ~~~   ** Rated Sensible Cooling Capacity Modifier = 1.00000
   **   ~~~   ** Peak Design Sensible Cooling Capacity Modifier = 0.98356
   **   ~~~   ** ...Rated Total Cooling Capacity at Rated Conditions = Total Peak Design Load * Rated Total Cooling Capacity Modifier  / Peak Design Total Cooling Capacity Modifier
   **   ~~~   ** ...Rated Sensible Cooling Capacity at Rated Conditions = Peak Design Sensible Load * Rated Sensible Cooling Capacity Modifier  / Peak Design Sensible Cooling Capacity Modifier
   **   ~~~   ** Carefully review the Load Side Total, Sensible, and Latent heat transfer rates
   **   ~~~   ** ... to ensure they meet the expected manufacturers performance specifications.
   ** Warning ** COIL:HEATING:WATERTOAIRHEATPUMP:EQUATIONFIT "CORRIDOR-1-0 WAHP HEATING COIL"
   **   ~~~   ** ...used with COIL:COOLING:WATERTOAIRHEATPUMP:EQUATIONFIT "CORRIDOR-1-0 WAHP COOLING COIL"
   **   ~~~   ** ...heating capacity is disproportionate (> 20% different) to total cooling capacity
   **   ~~~   ** ...heating capacity = 4000.000 W
   **   ~~~   ** ...cooling capacity = 524.045 W
   ** Warning ** COIL:COOLING:WATERTOAIRHEATPUMP:EQUATIONFIT "OFFICE-2-0 WAHP COOLING COIL"
   **   ~~~   ** SizeWaterToAirCoil: Rated Sensible Cooling Capacity > Rated Total Cooling Capacity
   **   ~~~   ** Both of these capacity inputs have been autosized.
   **   ~~~   ** Rated Sensible Cooling Capacity at Rated Conditions = 2088.72 W
   **   ~~~   ** Rated Total Cooling Capacity at Rated Conditions    = 1675.59 W
   **   ~~~   ** See eio file for further details.
   **   ~~~   ** Check Total and Sensible Cooling Capacity coefficients in curves to ensure they are accurate.
   **   ~~~   ** Check Zone and System Sizing objects to verify sizing inputs.
   **   ~~~   ** Sizing statistics:
   **   ~~~   ** Rated entering Air Wet-Bulb Temperature = 19.000 C
   **   ~~~   ** Peak entering Air Wet-Bulb Temperature = 17.620 C
   **   ~~~   ** Entering Water Temperature used = 30.000 C
   **   ~~~   ** Design air and water flow rates = 1.0
   **   ~~~   ** Rated ratio of load-side air wet-bulb temperature to 283.15 C (Rated ratioTWB) = 1.031
   **   ~~~   ** Rated ratio of source-side inlet water temperature to 283.15 C (Rated ratioTS)  = 1.070
   **   ~~~   ** Peak ratio of load-side air wet-bulb temperature to 283.15 C (Peak ratioTWB) = 1.026
   **   ~~~   ** Peak ratio of source-side inlet water temperature to 283.15 C (Peak ratioTS)  = 1.084
   **   ~~~   ** Rated Total Cooling Capacity Modifier = 1.00000
   **   ~~~   ** Peak Design Total Cooling Capacity Modifier = 0.92124
   **   ~~~   ** Rated Sensible Cooling Capacity Modifier = 1.00000
   **   ~~~   ** Peak Design Sensible Cooling Capacity Modifier = 0.98529
   **   ~~~   ** ...Rated Total Cooling Capacity at Rated Conditions = Total Peak Design Load * Rated Total Cooling Capacity Modifier  / Peak Design Total Cooling Capacity Modifier
   **   ~~~   ** ...Rated Sensible Cooling Capacity at Rated Conditions = Peak Design Sensible Load * Rated Sensible Cooling Capacity Modifier  / Peak Design Sensible Cooling Capacity Modifier
   **   ~~~   ** Carefully review the Load Side Total, Sensible, and Latent heat transfer rates
   **   ~~~   ** ... to ensure they meet the expected manufacturers performance specifications.
   ** Warning ** COIL:HEATING:WATERTOAIRHEATPUMP:EQUATIONFIT "OFFICE-2-0 WAHP HEATING COIL"
   **   ~~~   ** ...used with COIL:COOLING:WATERTOAIRHEATPUMP:EQUATIONFIT "OFFICE-2-0 WAHP COOLING COIL"
   **   ~~~   ** ...heating capacity is disproportionate (> 20% different) to total cooling capacity
   **   ~~~   ** ...heating capacity = 4000.000 W
   **   ~~~   ** ...cooling capacity = 1675.592 W
   ** Warning ** COIL:COOLING:WATERTOAIRHEATPUMP:EQUATIONFIT "OFFICE-2-1 WAHP COOLING COIL"
   **   ~~~   ** SizeWaterToAirCoil: Rated Sensible Cooling Capacity > Rated Total Cooling Capacity
   **   ~~~   ** Both of these capacity inputs have been autosized.
   **   ~~~   ** Rated Sensible Cooling Capacity at Rated Conditions = 1277.81 W
   **   ~~~   ** Rated Total Cooling Capacity at Rated Conditions    = 1164.08 W
   **   ~~~   ** See eio file for further details.
   **   ~~~   ** Check Total and Sensible Cooling Capacity coefficients in curves to ensure they are accurate.
   **   ~~~   ** Check Zone and System Sizing objects to verify sizing inputs.
   **   ~~~   ** Sizing statistics:
   **   ~~~   ** Rated entering Air Wet-Bulb Temperature = 19.000 C
   **   ~~~   ** Peak entering Air Wet-Bulb Temperature = 17.910 C
   **   ~~~   ** Entering Water Temperature used = 30.000 C
   **   ~~~   ** Design air and water flow rates = 1.0
   **   ~~~   ** Rated ratio of load-side air wet-bulb temperature to 283.15 C (Rated ratioTWB) = 1.031
   **   ~~~   ** Rated ratio of source-side inlet water temperature to 283.15 C (Rated ratioTS)  = 1.070
   **   ~~~   ** Peak ratio of load-side air wet-bulb temperature to 283.15 C (Peak ratioTWB) = 1.027
   **   ~~~   ** Peak ratio of source-side inlet water temperature to 283.15 C (Peak ratioTS)  = 1.084
   **   ~~~   ** Rated Total Cooling Capacity Modifier = 1.00000
   **   ~~~   ** Peak Design Total Cooling Capacity Modifier = 0.93259
   **   ~~~   ** Rated Sensible Cooling Capacity Modifier = 1.00000
   **   ~~~   ** Peak Design Sensible Cooling Capacity Modifier = 0.98822
   **   ~~~   ** ...Rated Total Cooling Capacity at Rated Conditions = Total Peak Design Load * Rated Total Cooling Capacity Modifier  / Peak Design Total Cooling Capacity Modifier
   **   ~~~   ** ...Rated Sensible Cooling Capacity at Rated Conditions = Peak Design Sensible Load * Rated Sensible Cooling Capacity Modifier  / Peak Design Sensible Cooling Capacity Modifier
   **   ~~~   ** Carefully review the Load Side Total, Sensible, and Latent heat transfer rates
   **   ~~~   ** ... to ensure they meet the expected manufacturers performance specifications.
   ** Warning ** COIL:HEATING:WATERTOAIRHEATPUMP:EQUATIONFIT "OFFICE-2-1 WAHP HEATING COIL"
   **   ~~~   ** ...used with COIL:COOLING:WATERTOAIRHEATPUMP:EQUATIONFIT "OFFICE-2-1 WAHP COOLING COIL"
   **   ~~~   ** ...heating capacity is disproportionate (> 20% different) to total cooling capacity
   **   ~~~   ** ...heating capacity = 4000.000 W
   **   ~~~   ** ...cooling capacity = 1164.080 W
   ** Warning ** COIL:HEATING:WATERTOAIRHEATPUMP:EQUATIONFIT "OFFICE-2-4 WAHP HEATING COIL"
   **   ~~~   ** ...used with COIL:COOLING:WATERTOAIRHEATPUMP:EQUATIONFIT "OFFICE-2-4 WAHP COOLING COIL"
   **   ~~~   ** ...heating capacity is disproportionate (> 20% different) to total cooling capacity
   **   ~~~   ** ...heating capacity = 4000.000 W
   **   ~~~   ** ...cooling capacity = 1651.519 W
   ** Warning ** COIL:COOLING:WATERTOAIRHEATPUMP:EQUATIONFIT "OFFICE-2-2 WAHP COOLING COIL"
   **   ~~~   ** SizeWaterToAirCoil: Rated Sensible Cooling Capacity > Rated Total Cooling Capacity
   **   ~~~   ** Both of these capacity inputs have been autosized.
   **   ~~~   ** Rated Sensible Cooling Capacity at Rated Conditions = 1632.72 W
   **   ~~~   ** Rated Total Cooling Capacity at Rated Conditions    = 946.53 W
   **   ~~~   ** See eio file for further details.
   **   ~~~   ** Check Total and Sensible Cooling Capacity coefficients in curves to ensure they are accurate.
   **   ~~~   ** Check Zone and System Sizing objects to verify sizing inputs.
   **   ~~~   ** Sizing statistics:
   **   ~~~   ** Rated entering Air Wet-Bulb Temperature = 19.000 C
   **   ~~~   ** Peak entering Air Wet-Bulb Temperature = 17.218 C
   **   ~~~   ** Entering Water Temperature used = 30.000 C
   **   ~~~   ** Design air and water flow rates = 1.0
   **   ~~~   ** Rated ratio of load-side air wet-bulb temperature to 283.15 C (Rated ratioTWB) = 1.031
   **   ~~~   ** Rated ratio of source-side inlet water temperature to 283.15 C (Rated ratioTS)  = 1.070
   **   ~~~   ** Peak ratio of load-side air wet-bulb temperature to 283.15 C (Peak ratioTWB) = 1.025
   **   ~~~   ** Peak ratio of source-side inlet water temperature to 283.15 C (Peak ratioTS)  = 1.084
   **   ~~~   ** Rated Total Cooling Capacity Modifier = 1.00000
   **   ~~~   ** Peak Design Total Cooling Capacity Modifier = 0.90549
   **   ~~~   ** Rated Sensible Cooling Capacity Modifier = 1.00000
   **   ~~~   ** Peak Design Sensible Cooling Capacity Modifier = 0.91138
   **   ~~~   ** ...Rated Total Cooling Capacity at Rated Conditions = Total Peak Design Load * Rated Total Cooling Capacity Modifier  / Peak Design Total Cooling Capacity Modifier
   **   ~~~   ** ...Rated Sensible Cooling Capacity at Rated Conditions = Peak Design Sensible Load * Rated Sensible Cooling Capacity Modifier  / Peak Design Sensible Cooling Capacity Modifier
   **   ~~~   ** Carefully review the Load Side Total, Sensible, and Latent heat transfer rates
   **   ~~~   ** ... to ensure they meet the expected manufacturers performance specifications.
   ** Warning ** COIL:HEATING:WATERTOAIRHEATPUMP:EQUATIONFIT "OFFICE-2-2 WAHP HEATING COIL"
   **   ~~~   ** ...used with COIL:COOLING:WATERTOAIRHEATPUMP:EQUATIONFIT "OFFICE-2-2 WAHP COOLING COIL"
   **   ~~~   ** ...heating capacity is disproportionate (> 20% different) to total cooling capacity
   **   ~~~   ** ...heating capacity = 4000.000 W
   **   ~~~   ** ...cooling capacity = 946.532 W
   ** Warning ** COIL:COOLING:WATERTOAIRHEATPUMP:EQUATIONFIT "OFFICE-2-3 WAHP COOLING COIL"
   **   ~~~   ** SizeWaterToAirCoil: Rated Sensible Cooling Capacity > Rated Total Cooling Capacity
   **   ~~~   ** Both of these capacity inputs have been autosized.
   **   ~~~   ** Rated Sensible Cooling Capacity at Rated Conditions = 2385.25 W
   **   ~~~   ** Rated Total Cooling Capacity at Rated Conditions    = 1406.93 W
   **   ~~~   ** See eio file for further details.
   **   ~~~   ** Check Total and Sensible Cooling Capacity coefficients in curves to ensure they are accurate.
   **   ~~~   ** Check Zone and System Sizing objects to verify sizing inputs.
   **   ~~~   ** Sizing statistics:
   **   ~~~   ** Rated entering Air Wet-Bulb Temperature = 19.000 C
   **   ~~~   ** Peak entering Air Wet-Bulb Temperature = 17.152 C
   **   ~~~   ** Entering Water Temperature used = 30.000 C
   **   ~~~   ** Design air and water flow rates = 1.0
   **   ~~~   ** Rated ratio of load-side air wet-bulb temperature to 283.15 C (Rated ratioTWB) = 1.031
   **   ~~~   ** Rated ratio of source-side inlet water temperature to 283.15 C (Rated ratioTS)  = 1.070
   **   ~~~   ** Peak ratio of load-side air wet-bulb temperature to 283.15 C (Peak ratioTWB) = 1.025
   **   ~~~   ** Peak ratio of source-side inlet water temperature to 283.15 C (Peak ratioTS)  = 1.084
   **   ~~~   ** Rated Total Cooling Capacity Modifier = 1.00000
   **   ~~~   ** Peak Design Total Cooling Capacity Modifier = 0.90291
   **   ~~~   ** Rated Sensible Cooling Capacity Modifier = 1.00000
   **   ~~~   ** Peak Design Sensible Cooling Capacity Modifier = 0.91804
   **   ~~~   ** ...Rated Total Cooling Capacity at Rated Conditions = Total Peak Design Load * Rated Total Cooling Capacity Modifier  / Peak Design Total Cooling Capacity Modifier
   **   ~~~   ** ...Rated Sensible Cooling Capacity at Rated Conditions = Peak Design Sensible Load * Rated Sensible Cooling Capacity Modifier  / Peak Design Sensible Cooling Capacity Modifier
   **   ~~~   ** Carefully review the Load Side Total, Sensible, and Latent heat transfer rates
   **   ~~~   ** ... to ensure they meet the expected manufacturers performance specifications.
   ** Warning ** COIL:HEATING:WATERTOAIRHEATPUMP:EQUATIONFIT "OFFICE-2-3 WAHP HEATING COIL"
   **   ~~~   ** ...used with COIL:COOLING:WATERTOAIRHEATPUMP:EQUATIONFIT "OFFICE-2-3 WAHP COOLING COIL"
   **   ~~~   ** ...heating capacity is disproportionate (> 20% different) to total cooling capacity
   **   ~~~   ** ...heating capacity = 4000.000 W
   **   ~~~   ** ...cooling capacity = 1406.938 W
   ** Warning ** COIL:COOLING:WATERTOAIRHEATPUMP:EQUATIONFIT "TOILET-2-0 WAHP COOLING COIL"
   **   ~~~   ** SizeWaterToAirCoil: Rated Sensible Cooling Capacity > Rated Total Cooling Capacity
   **   ~~~   ** Both of these capacity inputs have been autosized.
   **   ~~~   ** Rated Sensible Cooling Capacity at Rated Conditions = 272.52 W
   **   ~~~   ** Rated Total Cooling Capacity at Rated Conditions    = 255.90 W
   **   ~~~   ** See eio file for further details.
   **   ~~~   ** Check Total and Sensible Cooling Capacity coefficients in curves to ensure they are accurate.
   **   ~~~   ** Check Zone and System Sizing objects to verify sizing inputs.
   **   ~~~   ** Sizing statistics:
   **   ~~~   ** Rated entering Air Wet-Bulb Temperature = 19.000 C
   **   ~~~   ** Peak entering Air Wet-Bulb Temperature = 17.702 C
   **   ~~~   ** Entering Water Temperature used = 30.000 C
   **   ~~~   ** Design air and water flow rates = 1.0
   **   ~~~   ** Rated ratio of load-side air wet-bulb temperature to 283.15 C (Rated ratioTWB) = 1.031
   **   ~~~   ** Rated ratio of source-side inlet water temperature to 283.15 C (Rated ratioTS)  = 1.070
   **   ~~~   ** Peak ratio of load-side air wet-bulb temperature to 283.15 C (Peak ratioTWB) = 1.027
   **   ~~~   ** Peak ratio of source-side inlet water temperature to 283.15 C (Peak ratioTS)  = 1.084
   **   ~~~   ** Rated Total Cooling Capacity Modifier = 1.00000
   **   ~~~   ** Peak Design Total Cooling Capacity Modifier = 0.92445
   **   ~~~   ** Rated Sensible Cooling Capacity Modifier = 1.00000
   **   ~~~   ** Peak Design Sensible Cooling Capacity Modifier = 0.98991
   **   ~~~   ** ...Rated Total Cooling Capacity at Rated Conditions = Total Peak Design Load * Rated Total Cooling Capacity Modifier  / Peak Design Total Cooling Capacity Modifier
   **   ~~~   ** ...Rated Sensible Cooling Capacity at Rated Conditions = Peak Design Sensible Load * Rated Sensible Cooling Capacity Modifier  / Peak Design Sensible Cooling Capacity Modifier
   **   ~~~   ** Carefully review the Load Side Total, Sensible, and Latent heat transfer rates
   **   ~~~   ** ... to ensure they meet the expected manufacturers performance specifications.
   ** Warning ** COIL:HEATING:WATERTOAIRHEATPUMP:EQUATIONFIT "TOILET-2-0 WAHP HEATING COIL"
   **   ~~~   ** ...used with COIL:COOLING:WATERTOAIRHEATPUMP:EQUATIONFIT "TOILET-2-0 WAHP COOLING COIL"
   **   ~~~   ** ...heating capacity is disproportionate (> 20% different) to total cooling capacity
   **   ~~~   ** ...heating capacity = 4000.000 W
   **   ~~~   ** ...cooling capacity = 255.902 W
   ** Warning ** COIL:HEATING:WATERTOAIRHEATPUMP:EQUATIONFIT "STAIRS-2-0 WAHP HEATING COIL"
   **   ~~~   ** ...used with COIL:COOLING:WATERTOAIRHEATPUMP:EQUATIONFIT "STAIRS-2-0 WAHP COOLING COIL"
   **   ~~~   ** ...heating capacity is disproportionate (> 20% different) to total cooling capacity
   **   ~~~   ** ...heating capacity = 4000.000 W
   **   ~~~   ** ...cooling capacity = 851.304 W
   ** Warning ** COIL:COOLING:WATERTOAIRHEATPUMP:EQUATIONFIT "TECHNIC-2-0 WAHP COOLING COIL"
   **   ~~~   ** SizeWaterToAirCoil: Rated Sensible Cooling Capacity > Rated Total Cooling Capacity
   **   ~~~   ** Both of these capacity inputs have been autosized.
   **   ~~~   ** Rated Sensible Cooling Capacity at Rated Conditions = 373.51 W
   **   ~~~   ** Rated Total Cooling Capacity at Rated Conditions    = 304.57 W
   **   ~~~   ** See eio file for further details.
   **   ~~~   ** Check Total and Sensible Cooling Capacity coefficients in curves to ensure they are accurate.
   **   ~~~   ** Check Zone and System Sizing objects to verify sizing inputs.
   **   ~~~   ** Sizing statistics:
   **   ~~~   ** Rated entering Air Wet-Bulb Temperature = 19.000 C
   **   ~~~   ** Peak entering Air Wet-Bulb Temperature = 16.678 C
   **   ~~~   ** Entering Water Temperature used = 30.000 C
   **   ~~~   ** Design air and water flow rates = 1.0
   **   ~~~   ** Rated ratio of load-side air wet-bulb temperature to 283.15 C (Rated ratioTWB) = 1.031
   **   ~~~   ** Rated ratio of source-side inlet water temperature to 283.15 C (Rated ratioTS)  = 1.070
   **   ~~~   ** Peak ratio of load-side air wet-bulb temperature to 283.15 C (Peak ratioTWB) = 1.023
   **   ~~~   ** Peak ratio of source-side inlet water temperature to 283.15 C (Peak ratioTS)  = 1.084
   **   ~~~   ** Rated Total Cooling Capacity Modifier = 1.00000
   **   ~~~   ** Peak Design Total Cooling Capacity Modifier = 0.88435
   **   ~~~   ** Rated Sensible Cooling Capacity Modifier = 1.00000
   **   ~~~   ** Peak Design Sensible Cooling Capacity Modifier = 0.95082
   **   ~~~   ** ...Rated Total Cooling Capacity at Rated Conditions = Total Peak Design Load * Rated Total Cooling Capacity Modifier  / Peak Design Total Cooling Capacity Modifier
   **   ~~~   ** ...Rated Sensible Cooling Capacity at Rated Conditions = Peak Design Sensible Load * Rated Sensible Cooling Capacity Modifier  / Peak Design Sensible Cooling Capacity Modifier
   **   ~~~   ** Carefully review the Load Side Total, Sensible, and Latent heat transfer rates
   **   ~~~   ** ... to ensure they meet the expected manufacturers performance specifications.
   ** Warning ** COIL:HEATING:WATERTOAIRHEATPUMP:EQUATIONFIT "TECHNIC-2-0 WAHP HEATING COIL"
   **   ~~~   ** ...used with COIL:COOLING:WATERTOAIRHEATPUMP:EQUATIONFIT "TECHNIC-2-0 WAHP COOLING COIL"
   **   ~~~   ** ...heating capacity is disproportionate (> 20% different) to total cooling capacity
   **   ~~~   ** ...heating capacity = 4000.000 W
   **   ~~~   ** ...cooling capacity = 304.570 W
   ** Warning ** COIL:COOLING:WATERTOAIRHEATPUMP:EQUATIONFIT "CORRIDOR-2-0 WAHP COOLING COIL"
   **   ~~~   ** SizeWaterToAirCoil: Rated Sensible Cooling Capacity > Rated Total Cooling Capacity
   **   ~~~   ** Both of these capacity inputs have been autosized.
   **   ~~~   ** Rated Sensible Cooling Capacity at Rated Conditions = 1399.77 W
   **   ~~~   ** Rated Total Cooling Capacity at Rated Conditions    = 1246.28 W
   **   ~~~   ** See eio file for further details.
   **   ~~~   ** Check Total and Sensible Cooling Capacity coefficients in curves to ensure they are accurate.
   **   ~~~   ** Check Zone and System Sizing objects to verify sizing inputs.
   **   ~~~   ** Sizing statistics:
   **   ~~~   ** Rated entering Air Wet-Bulb Temperature = 19.000 C
   **   ~~~   ** Peak entering Air Wet-Bulb Temperature = 16.739 C
   **   ~~~   ** Entering Water Temperature used = 30.000 C
   **   ~~~   ** Design air and water flow rates = 1.0
   **   ~~~   ** Rated ratio of load-side air wet-bulb temperature to 283.15 C (Rated ratioTWB) = 1.031
   **   ~~~   ** Rated ratio of source-side inlet water temperature to 283.15 C (Rated ratioTS)  = 1.070
   **   ~~~   ** Peak ratio of load-side air wet-bulb temperature to 283.15 C (Peak ratioTWB) = 1.023
   **   ~~~   ** Peak ratio of source-side inlet water temperature to 283.15 C (Peak ratioTS)  = 1.084
   **   ~~~   ** Rated Total Cooling Capacity Modifier = 1.00000
   **   ~~~   ** Peak Design Total Cooling Capacity Modifier = 0.88671
   **   ~~~   ** Rated Sensible Cooling Capacity Modifier = 1.00000
   **   ~~~   ** Peak Design Sensible Cooling Capacity Modifier = 0.96553
   **   ~~~   ** ...Rated Total Cooling Capacity at Rated Conditions = Total Peak Design Load * Rated Total Cooling Capacity Modifier  / Peak Design Total Cooling Capacity Modifier
   **   ~~~   ** ...Rated Sensible Cooling Capacity at Rated Conditions = Peak Design Sensible Load * Rated Sensible Cooling Capacity Modifier  / Peak Design Sensible Cooling Capacity Modifier
   **   ~~~   ** Carefully review the Load Side Total, Sensible, and Latent heat transfer rates
   **   ~~~   ** ... to ensure they meet the expected manufacturers performance specifications.
   ** Warning ** COIL:HEATING:WATERTOAIRHEATPUMP:EQUATIONFIT "CORRIDOR-2-0 WAHP HEATING COIL"
   **   ~~~   ** ...used with COIL:COOLING:WATERTOAIRHEATPUMP:EQUATIONFIT "CORRIDOR-2-0 WAHP COOLING COIL"
   **   ~~~   ** ...heating capacity is disproportionate (> 20% different) to total cooling capacity
   **   ~~~   ** ...heating capacity = 4000.000 W
   **   ~~~   ** ...cooling capacity = 1246.284 W
   ************* Testing Individual Branch Integrity
   ************* All Branches passed integrity testing
   ************* Testing Individual Supply Air Path Integrity
   ************* All Supply Air Paths passed integrity testing
   ************* Testing Individual Return Air Path Integrity
   ************* All Return Air Paths passed integrity testing
   ************* No node connection errors were found.
   ************* Beginning Simulation
   ** Warning ** GetDensityGlycol: Temperature is out of range (too low) for fluid [WATER] density **
   **   ~~~   ** ..Called From:NodeReportingCalc:MAINTOWER CNDW OUTLET,Temperature=[-26.12], supplied data range=[0.00,100.00]
   **   ~~~   **  Environment=RUNPERIODNOVEMBER, at Simulation time=11/01 00:00 - 00:10
   ** Warning ** GetSpecificHeatGlycol: Temperature is out of range (too low) for fluid [WATER] specific heat supplied values **
   **   ~~~   ** ..Called From:PlantLoopSolver::UpdateAnyLoopDemandAlterations,Temperature=[-26.44], supplied data range=[0.00,125.00]
   **   ~~~   **  Environment=RUNPERIODNOVEMBER, at Simulation time=11/01 07:00 - 07:10
   ************* Simulation Error Summary *************
   ** Warning ** The following Report Variables were requested but not generated -- check.rdd file
   **   ~~~   ** Either the IDF did not contain these elements, the variable name is misspelled,
   **   ~~~   ** or the requested variable is an advanced output which requires Output : Diagnostics, DisplayAdvancedReportVariables;
   ************* Key=*, VarName=BOILER ELECTRICITY ENERGY, Frequency=
   ************* Key=*, VarName=CHILLER ELECTRICITY ENERGY, Frequency=
   *************
   ************* ===== Recurring Error Summary =====
   ************* The following recurring error messages occurred.
   *************
   *************  ** Warning ** Actual air mass flow rate is smaller than 25% of water-to-air heat pump coil rated air flow rate.
   *************  **   ~~~   **   This error occurred 737451 total times;
   *************  **   ~~~   **   during Warmup 173400 times;
   *************  **   ~~~   **   during Sizing 0 times.
   *************  **   ~~~   **   Max=6.816690E-002  Min=1.346374E-005
   *************
   *************  ** Warning ** Plant loop falling below lower temperature limit, PlantLoop="ONLYWATERLOOP MIXED WATER LOOP"
   *************  **   ~~~   **   This error occurred 48248 total times;
   *************  **   ~~~   **   during Warmup 13688 times;
   *************  **   ~~~   **   during Sizing 0 times.
   *************  **   ~~~   **   Min=-32.534728
   *************
   *************  ** Warning ** GetDensityGlycol: Temperature out of range (too low) for fluid [WATER] density **
   *************  **   ~~~   **   This error occurred 3974156 total times;
   *************  **   ~~~   **   during Warmup 0 times;
   *************  **   ~~~   **   during Sizing 0 times.
   *************  **   ~~~   **   Max=-1.302618E-003 {C}  Min=-32.683773 {C}
   *************
   *************  ** Warning ** GetSpecificHeatGlycol: Temperature out of range (too low) for fluid [WATER] specific heat **
   *************  **   ~~~   **   This error occurred 410062 total times;
   *************  **   ~~~   **   during Warmup 0 times;
   *************  **   ~~~   **   during Sizing 0 times.
   *************  **   ~~~   **   Max=-8.498003E-005 {C}  Min=-32.683773 {C}
   *************
   *************
   ************* ===== Final Error Summary =====
   ************* The following error categories occurred.  Consider correcting or noting.
   ************* Nominally Unused Constructions
   ************* ..The nominally unused constructions warning is provided to alert you to potential conditions that can cause
   ************* ..extra time during simulation. Each construction is calculated by the algorithm indicated in the HeatBalanceAlgorithm
   ************* ..object. You may remove the constructions indicated (when you use the DisplayExtraWarnings option).
   *************
   ************* EnergyPlus Warmup Error Summary. During Warmup: 0 Warning; 0 Severe Errors.
   ************* EnergyPlus Sizing Error Summary. During Sizing: 40 Warning; 0 Severe Errors.
   ************* EnergyPlus Completed Successfully-- 5170004 Warning; 0 Severe Errors; Elapsed Time=00hr 01min 10.20sec
