Program Version,EnergyPlus, Version 22.2.0-c249759bad, YMD=2023.04.03 12:50,
   ** Warning ** Output:PreprocessorMessage="ExpandObjects" has the following Warning condition:
   **   ~~~   ** Cannot find Energy+.idd as specified in Energy+.ini.
   ** Warning ** Output:PreprocessorMessage="ExpandObjects" has the following Warning conditions:
   **   ~~~   ** Since the Energy+.IDD file cannot be read no range or choice checking was
   **   ~~~   ** performed.
   ************* Beginning Zone Sizing Calculations
   ** Warning ** Site:GroundTemperature:BuildingSurface: Some values fall outside the range of 15-25C.
   **   ~~~   ** These values may be inappropriate.  Please consult the Input Output Reference for more details.
   ** Warning ** ProcessScheduleInput: Schedule:Compact="GENERIC.ALWAYS1", Schedule Type Limits Name="ANYNUMBER" not found -- will not be validated
   ** Warning ** ProcessScheduleInput: Schedule:Compact="GENERIC.ALWAYS01", Schedule Type Limits Name="ANYNUMBER" not found -- will not be validated
   ** Warning ** ProcessScheduleInput: Schedule:Compact="OFFICE.COOLINGSETPOINT", Schedule Type Limits Name="ANYNUMBER" not found -- will not be validated
   ** Warning ** ProcessScheduleInput: Schedule:Compact="OFFICE.ELECTRICEQUIPMENT", Schedule Type Limits Name="ANYNUMBER" not found -- will not be validated
   ** Warning ** ProcessScheduleInput: Schedule:Compact="OFFICE.LIGHTS", Schedule Type Limits Name="ANYNUMBER" not found -- will not be validated
   ** Warning ** ProcessScheduleInput: Schedule:Compact="OFFICE.PEOPLE", Schedule Type Limits Name="ANYNUMBER" not found -- will not be validated
   ** Warning ** ProcessScheduleInput: Schedule:Compact="OFFICE.ACTIVITY", Schedule Type Limits Name="ANYNUMBER" not found -- will not be validated
   ** Warning ** ProcessScheduleInput: Schedule:Compact="STAIRS.COOLINGSETPOINT", Schedule Type Limits Name="ANYNUMBER" not found -- will not be validated
   ** Warning ** ProcessScheduleInput: Schedule:Compact="STAIRS.ELECTRICEQUIPMENT", Schedule Type Limits Name="ANYNUMBER" not found -- will not be validated
   ** Warning ** ProcessScheduleInput: Schedule:Compact="STAIRS.LIGHTS", Schedule Type Limits Name="ANYNUMBER" not found -- will not be validated
   ** Warning ** ProcessScheduleInput: Schedule:Compact="STAIRS.PEOPLE", Schedule Type Limits Name="ANYNUMBER" not found -- will not be validated
   ** Warning ** ProcessScheduleInput: Schedule:Compact="STAIRS.ACTIVITY", Schedule Type Limits Name="ANYNUMBER" not found -- will not be validated
   ** Warning ** ProcessScheduleInput: Schedule:Compact="TOILET.HEATINGSETPOINT", Schedule Type Limits Name="ANYNUMBER" not found -- will not be validated
   ** Warning ** ProcessScheduleInput: Schedule:Compact="TOILET.COOLINGSETPOINT", Schedule Type Limits Name="ANYNUMBER" not found -- will not be validated
   ** Warning ** ProcessScheduleInput: Schedule:Compact="TOILET.ELECTRICEQUIPMENT", Schedule Type Limits Name="ANYNUMBER" not found -- will not be validated
   ** Warning ** ProcessScheduleInput: Schedule:Compact="TOILET.LIGHTS", Schedule Type Limits Name="ANYNUMBER" not found -- will not be validated
   ** Warning ** ProcessScheduleInput: Schedule:Compact="TOILET.PEOPLE", Schedule Type Limits Name="ANYNUMBER" not found -- will not be validated
   ** Warning ** ProcessScheduleInput: Schedule:Compact="TOILET.ACTIVITY", Schedule Type Limits Name="ANYNUMBER" not found -- will not be validated
   ** Warning ** ProcessScheduleInput: Schedule:Compact="SERVICE.HEATINGSETPOINT", Schedule Type Limits Name="ANYNUMBER" not found -- will not be validated
   ** Warning ** ProcessScheduleInput: Schedule:Compact="SERVICE.COOLINGSETPOINT", Schedule Type Limits Name="ANYNUMBER" not found -- will not be validated
   ** Warning ** ProcessScheduleInput: Schedule:Compact="SERVICE.ELECTRICEQUIPMENT", Schedule Type Limits Name="ANYNUMBER" not found -- will not be validated
   ** Warning ** ProcessScheduleInput: Schedule:Compact="SERVICE.LIGHTS", Schedule Type Limits Name="ANYNUMBER" not found -- will not be validated
   ** Warning ** ProcessScheduleInput: Schedule:Compact="SERVICE.PEOPLE", Schedule Type Limits Name="ANYNUMBER" not found -- will not be validated
   ** Warning ** ProcessScheduleInput: Schedule:Compact="SERVICE.ACTIVITY", Schedule Type Limits Name="ANYNUMBER" not found -- will not be validated
   ** Warning ** ProcessScheduleInput: Schedule:Compact="CORRIDOR.COOLINGSETPOINT", Schedule Type Limits Name="ANYNUMBER" not found -- will not be validated
   ** Warning ** ProcessScheduleInput: Schedule:Compact="CORRIDOR.ELECTRICEQUIPMENT", Schedule Type Limits Name="ANYNUMBER" not found -- will not be validated
   ** Warning ** ProcessScheduleInput: Schedule:Compact="CORRIDOR.LIGHTS", Schedule Type Limits Name="ANYNUMBER" not found -- will not be validated
   ** Warning ** ProcessScheduleInput: Schedule:Compact="CORRIDOR.PEOPLE", Schedule Type Limits Name="ANYNUMBER" not found -- will not be validated
   ** Warning ** ProcessScheduleInput: Schedule:Compact="CORRIDOR.ACTIVITY", Schedule Type Limits Name="ANYNUMBER" not found -- will not be validated
   ** Warning ** ProcessScheduleInput: Schedule:Compact="TECHNIC.HEATINGSETPOINT", Schedule Type Limits Name="ANYNUMBER" not found -- will not be validated
   ** Warning ** ProcessScheduleInput: Schedule:Compact="TECHNIC.COOLINGSETPOINT", Schedule Type Limits Name="ANYNUMBER" not found -- will not be validated
   ** Warning ** ProcessScheduleInput: Schedule:Compact="TECHNIC.ELECTRICEQUIPMENT", Schedule Type Limits Name="ANYNUMBER" not found -- will not be validated
   ** Warning ** ProcessScheduleInput: Schedule:Compact="TECHNIC.LIGHTS", Schedule Type Limits Name="ANYNUMBER" not found -- will not be validated
   ** Warning ** ProcessScheduleInput: Schedule:Compact="TECHNIC.PEOPLE", Schedule Type Limits Name="ANYNUMBER" not found -- will not be validated
   ** Warning ** ProcessScheduleInput: Schedule:Compact="TECHNIC.ACTIVITY", Schedule Type Limits Name="ANYNUMBER" not found -- will not be validated
   ** Warning ** ProcessScheduleInput: Schedule:Compact="OFFICE.HEATINGSETPOINT", Schedule Type Limits Name="ANYNUMBER" not found -- will not be validated
   ** Warning ** ProcessScheduleInput: Schedule:Compact="CORRIDOR.HEATINGSETPOINT", Schedule Type Limits Name="ANYNUMBER" not found -- will not be validated
   ** Warning ** ProcessScheduleInput: Schedule:Compact="STAIRS.HEATINGSETPOINT", Schedule Type Limits Name="ANYNUMBER" not found -- will not be validated
   ** Warning ** CheckUsedConstructions: There are 4 nominally unused constructions in input.
   **   ~~~   ** Each Unused construction is shown.
   ************* Construction=WALLEXTERNAL
   ************* Construction=FLOORGROUND
   ************* Construction=ROOF
   ************* Construction=WINDOW
   ************* Beginning Plant Sizing Calculations
   ** Warning ** COIL:COOLING:WATERTOAIRHEATPUMP:EQUATIONFIT "OFFICE-0-0 WAHP COOLING COIL"
   **   ~~~   ** SizeWaterToAirCoil: Rated Sensible Cooling Capacity > Rated Total Cooling Capacity
   **   ~~~   ** Both of these capacity inputs have been autosized.
   **   ~~~   ** Rated Sensible Cooling Capacity at Rated Conditions = 3051.83 W
   **   ~~~   ** Rated Total Cooling Capacity at Rated Conditions    = 1185.40 W
   **   ~~~   ** See eio file for further details.
   **   ~~~   ** Check Total and Sensible Cooling Capacity coefficients in curves to ensure they are accurate.
   **   ~~~   ** Check Zone and System Sizing objects to verify sizing inputs.
   **   ~~~   ** Sizing statistics:
   **   ~~~   ** Rated entering Air Wet-Bulb Temperature = 19.000 C
   **   ~~~   ** Peak entering Air Wet-Bulb Temperature = 17.543 C
   **   ~~~   ** Entering Water Temperature used = 30.000 C
   **   ~~~   ** Design air and water flow rates = 1.0
   **   ~~~   ** Rated ratio of load-side air wet-bulb temperature to 283.15 C (Rated ratioTWB) = 1.031
   **   ~~~   ** Rated ratio of source-side inlet water temperature to 283.15 C (Rated ratioTS)  = 1.070
   **   ~~~   ** Peak ratio of load-side air wet-bulb temperature to 283.15 C (Peak ratioTWB) = 1.026
   **   ~~~   ** Peak ratio of source-side inlet water temperature to 283.15 C (Peak ratioTS)  = 1.084
   **   ~~~   ** Rated Total Cooling Capacity Modifier = 1.00000
   **   ~~~   ** Peak Design Total Cooling Capacity Modifier = 0.91821
   **   ~~~   ** Rated Sensible Cooling Capacity Modifier = 1.00000
   **   ~~~   ** Peak Design Sensible Cooling Capacity Modifier = 0.98558
   **   ~~~   ** ...Rated Total Cooling Capacity at Rated Conditions = Total Peak Design Load * Rated Total Cooling Capacity Modifier  / Peak Design Total Cooling Capacity Modifier
   **   ~~~   ** ...Rated Sensible Cooling Capacity at Rated Conditions = Peak Design Sensible Load * Rated Sensible Cooling Capacity Modifier  / Peak Design Sensible Cooling Capacity Modifier
   **   ~~~   ** Carefully review the Load Side Total, Sensible, and Latent heat transfer rates
   **   ~~~   ** ... to ensure they meet the expected manufacturers performance specifications.
   ** Warning ** COIL:HEATING:WATERTOAIRHEATPUMP:EQUATIONFIT "OFFICE-0-0 WAHP HEATING COIL"
   **   ~~~   ** ...used with COIL:COOLING:WATERTOAIRHEATPUMP:EQUATIONFIT "OFFICE-0-0 WAHP COOLING COIL"
   **   ~~~   ** ...heating capacity is disproportionate (> 20% different) to total cooling capacity
   **   ~~~   ** ...heating capacity = 4000.000 W
   **   ~~~   ** ...cooling capacity = 1185.405 W
   ** Warning ** COIL:COOLING:WATERTOAIRHEATPUMP:EQUATIONFIT "OFFICE-0-1 WAHP COOLING COIL"
   **   ~~~   ** SizeWaterToAirCoil: Rated Sensible Cooling Capacity > Rated Total Cooling Capacity
   **   ~~~   ** Both of these capacity inputs have been autosized.
   **   ~~~   ** Rated Sensible Cooling Capacity at Rated Conditions = 1967.59 W
   **   ~~~   ** Rated Total Cooling Capacity at Rated Conditions    = 995.76 W
   **   ~~~   ** See eio file for further details.
   **   ~~~   ** Check Total and Sensible Cooling Capacity coefficients in curves to ensure they are accurate.
   **   ~~~   ** Check Zone and System Sizing objects to verify sizing inputs.
   **   ~~~   ** Sizing statistics:
   **   ~~~   ** Rated entering Air Wet-Bulb Temperature = 19.000 C
   **   ~~~   ** Peak entering Air Wet-Bulb Temperature = 17.999 C
   **   ~~~   ** Entering Water Temperature used = 30.000 C
   **   ~~~   ** Design air and water flow rates = 1.0
   **   ~~~   ** Rated ratio of load-side air wet-bulb temperature to 283.15 C (Rated ratioTWB) = 1.031
   **   ~~~   ** Rated ratio of source-side inlet water temperature to 283.15 C (Rated ratioTS)  = 1.070
   **   ~~~   ** Peak ratio of load-side air wet-bulb temperature to 283.15 C (Peak ratioTWB) = 1.028
   **   ~~~   ** Peak ratio of source-side inlet water temperature to 283.15 C (Peak ratioTS)  = 1.084
   **   ~~~   ** Rated Total Cooling Capacity Modifier = 1.00000
   **   ~~~   ** Peak Design Total Cooling Capacity Modifier = 0.93605
   **   ~~~   ** Rated Sensible Cooling Capacity Modifier = 1.00000
   **   ~~~   ** Peak Design Sensible Cooling Capacity Modifier = 0.98945
   **   ~~~   ** ...Rated Total Cooling Capacity at Rated Conditions = Total Peak Design Load * Rated Total Cooling Capacity Modifier  / Peak Design Total Cooling Capacity Modifier
   **   ~~~   ** ...Rated Sensible Cooling Capacity at Rated Conditions = Peak Design Sensible Load * Rated Sensible Cooling Capacity Modifier  / Peak Design Sensible Cooling Capacity Modifier
   **   ~~~   ** Carefully review the Load Side Total, Sensible, and Latent heat transfer rates
   **   ~~~   ** ... to ensure they meet the expected manufacturers performance specifications.
   ** Warning ** COIL:HEATING:WATERTOAIRHEATPUMP:EQUATIONFIT "OFFICE-0-1 WAHP HEATING COIL"
   **   ~~~   ** ...used with COIL:COOLING:WATERTOAIRHEATPUMP:EQUATIONFIT "OFFICE-0-1 WAHP COOLING COIL"
   **   ~~~   ** ...heating capacity is disproportionate (> 20% different) to total cooling capacity
   **   ~~~   ** ...heating capacity = 4000.000 W
   **   ~~~   ** ...cooling capacity = 995.766 W
   ** Warning ** COIL:COOLING:WATERTOAIRHEATPUMP:EQUATIONFIT "OFFICE-0-2 WAHP COOLING COIL"
   **   ~~~   ** SizeWaterToAirCoil: Rated Sensible Cooling Capacity > Rated Total Cooling Capacity
   **   ~~~   ** Both of these capacity inputs have been autosized.
   **   ~~~   ** Rated Sensible Cooling Capacity at Rated Conditions = 2313.66 W
   **   ~~~   ** Rated Total Cooling Capacity at Rated Conditions    = 645.44 W
   **   ~~~   ** See eio file for further details.
   **   ~~~   ** Check Total and Sensible Cooling Capacity coefficients in curves to ensure they are accurate.
   **   ~~~   ** Check Zone and System Sizing objects to verify sizing inputs.
   **   ~~~   ** Sizing statistics:
   **   ~~~   ** Rated entering Air Wet-Bulb Temperature = 19.000 C
   **   ~~~   ** Peak entering Air Wet-Bulb Temperature = 17.338 C
   **   ~~~   ** Entering Water Temperature used = 30.000 C
   **   ~~~   ** Design air and water flow rates = 1.0
   **   ~~~   ** Rated ratio of load-side air wet-bulb temperature to 283.15 C (Rated ratioTWB) = 1.031
   **   ~~~   ** Rated ratio of source-side inlet water temperature to 283.15 C (Rated ratioTS)  = 1.070
   **   ~~~   ** Peak ratio of load-side air wet-bulb temperature to 283.15 C (Peak ratioTWB) = 1.025
   **   ~~~   ** Peak ratio of source-side inlet water temperature to 283.15 C (Peak ratioTS)  = 1.084
   **   ~~~   ** Rated Total Cooling Capacity Modifier = 1.00000
   **   ~~~   ** Peak Design Total Cooling Capacity Modifier = 0.91016
   **   ~~~   ** Rated Sensible Cooling Capacity Modifier = 1.00000
   **   ~~~   ** Peak Design Sensible Cooling Capacity Modifier = 0.90353
   **   ~~~   ** ...Rated Total Cooling Capacity at Rated Conditions = Total Peak Design Load * Rated Total Cooling Capacity Modifier  / Peak Design Total Cooling Capacity Modifier
   **   ~~~   ** ...Rated Sensible Cooling Capacity at Rated Conditions = Peak Design Sensible Load * Rated Sensible Cooling Capacity Modifier  / Peak Design Sensible Cooling Capacity Modifier
   **   ~~~   ** Carefully review the Load Side Total, Sensible, and Latent heat transfer rates
   **   ~~~   ** ... to ensure they meet the expected manufacturers performance specifications.
   ** Warning ** COIL:HEATING:WATERTOAIRHEATPUMP:EQUATIONFIT "OFFICE-0-2 WAHP HEATING COIL"
   **   ~~~   ** ...used with COIL:COOLING:WATERTOAIRHEATPUMP:EQUATIONFIT "OFFICE-0-2 WAHP COOLING COIL"
   **   ~~~   ** ...heating capacity is disproportionate (> 20% different) to total cooling capacity
   **   ~~~   ** ...heating capacity = 4000.000 W
   **   ~~~   ** ...cooling capacity = 645.445 W
   ** Warning ** COIL:COOLING:WATERTOAIRHEATPUMP:EQUATIONFIT "OFFICE-0-3 WAHP COOLING COIL"
   **   ~~~   ** SizeWaterToAirCoil: Rated Sensible Cooling Capacity > Rated Total Cooling Capacity
   **   ~~~   ** Both of these capacity inputs have been autosized.
   **   ~~~   ** Rated Sensible Cooling Capacity at Rated Conditions = 2475.43 W
   **   ~~~   ** Rated Total Cooling Capacity at Rated Conditions    = 791.47 W
   **   ~~~   ** See eio file for further details.
   **   ~~~   ** Check Total and Sensible Cooling Capacity coefficients in curves to ensure they are accurate.
   **   ~~~   ** Check Zone and System Sizing objects to verify sizing inputs.
   **   ~~~   ** Sizing statistics:
   **   ~~~   ** Rated entering Air Wet-Bulb Temperature = 19.000 C
   **   ~~~   ** Peak entering Air Wet-Bulb Temperature = 17.342 C
   **   ~~~   ** Entering Water Temperature used = 30.000 C
   **   ~~~   ** Design air and water flow rates = 1.0
   **   ~~~   ** Rated ratio of load-side air wet-bulb temperature to 283.15 C (Rated ratioTWB) = 1.031
   **   ~~~   ** Rated ratio of source-side inlet water temperature to 283.15 C (Rated ratioTS)  = 1.070
   **   ~~~   ** Peak ratio of load-side air wet-bulb temperature to 283.15 C (Peak ratioTWB) = 1.025
   **   ~~~   ** Peak ratio of source-side inlet water temperature to 283.15 C (Peak ratioTS)  = 1.084
   **   ~~~   ** Rated Total Cooling Capacity Modifier = 1.00000
   **   ~~~   ** Peak Design Total Cooling Capacity Modifier = 0.91033
   **   ~~~   ** Rated Sensible Cooling Capacity Modifier = 1.00000
   **   ~~~   ** Peak Design Sensible Cooling Capacity Modifier = 0.93640
   **   ~~~   ** ...Rated Total Cooling Capacity at Rated Conditions = Total Peak Design Load * Rated Total Cooling Capacity Modifier  / Peak Design Total Cooling Capacity Modifier
   **   ~~~   ** ...Rated Sensible Cooling Capacity at Rated Conditions = Peak Design Sensible Load * Rated Sensible Cooling Capacity Modifier  / Peak Design Sensible Cooling Capacity Modifier
   **   ~~~   ** Carefully review the Load Side Total, Sensible, and Latent heat transfer rates
   **   ~~~   ** ... to ensure they meet the expected manufacturers performance specifications.
   ** Warning ** COIL:HEATING:WATERTOAIRHEATPUMP:EQUATIONFIT "OFFICE-0-3 WAHP HEATING COIL"
   **   ~~~   ** ...used with COIL:COOLING:WATERTOAIRHEATPUMP:EQUATIONFIT "OFFICE-0-3 WAHP COOLING COIL"
   **   ~~~   ** ...heating capacity is disproportionate (> 20% different) to total cooling capacity
   **   ~~~   ** ...heating capacity = 4000.000 W
   **   ~~~   ** ...cooling capacity = 791.470 W
   ** Warning ** COIL:HEATING:WATERTOAIRHEATPUMP:EQUATIONFIT "TOILET-0-0 WAHP HEATING COIL"
   **   ~~~   ** ...used with COIL:COOLING:WATERTOAIRHEATPUMP:EQUATIONFIT "TOILET-0-0 WAHP COOLING COIL"
   **   ~~~   ** ...heating capacity is disproportionate (> 20% different) to total cooling capacity
   **   ~~~   ** ...heating capacity = 4000.000 W
   **   ~~~   ** ...cooling capacity = 235.489 W
   ** Warning ** COIL:HEATING:WATERTOAIRHEATPUMP:EQUATIONFIT "STAIRS-0-0 WAHP HEATING COIL"
   **   ~~~   ** ...used with COIL:COOLING:WATERTOAIRHEATPUMP:EQUATIONFIT "STAIRS-0-0 WAHP COOLING COIL"
   **   ~~~   ** ...heating capacity is disproportionate (> 20% different) to total cooling capacity
   **   ~~~   ** ...heating capacity = 4000.000 W
   **   ~~~   ** ...cooling capacity = 353.922 W
   ** Warning ** COIL:COOLING:WATERTOAIRHEATPUMP:EQUATIONFIT "TECHNIC-0-0 WAHP COOLING COIL"
   **   ~~~   ** SizeWaterToAirCoil: Rated Sensible Cooling Capacity > Rated Total Cooling Capacity
   **   ~~~   ** Both of these capacity inputs have been autosized.
   **   ~~~   ** Rated Sensible Cooling Capacity at Rated Conditions = 623.91 W
   **   ~~~   ** Rated Total Cooling Capacity at Rated Conditions    = 365.04 W
   **   ~~~   ** See eio file for further details.
   **   ~~~   ** Check Total and Sensible Cooling Capacity coefficients in curves to ensure they are accurate.
   **   ~~~   ** Check Zone and System Sizing objects to verify sizing inputs.
   **   ~~~   ** Sizing statistics:
   **   ~~~   ** Rated entering Air Wet-Bulb Temperature = 19.000 C
   **   ~~~   ** Peak entering Air Wet-Bulb Temperature = 16.375 C
   **   ~~~   ** Entering Water Temperature used = 30.000 C
   **   ~~~   ** Design air and water flow rates = 1.0
   **   ~~~   ** Rated ratio of load-side air wet-bulb temperature to 283.15 C (Rated ratioTWB) = 1.031
   **   ~~~   ** Rated ratio of source-side inlet water temperature to 283.15 C (Rated ratioTS)  = 1.070
   **   ~~~   ** Peak ratio of load-side air wet-bulb temperature to 283.15 C (Peak ratioTWB) = 1.022
   **   ~~~   ** Peak ratio of source-side inlet water temperature to 283.15 C (Peak ratioTS)  = 1.084
   **   ~~~   ** Rated Total Cooling Capacity Modifier = 1.00000
   **   ~~~   ** Peak Design Total Cooling Capacity Modifier = 0.87248
   **   ~~~   ** Rated Sensible Cooling Capacity Modifier = 1.00000
   **   ~~~   ** Peak Design Sensible Cooling Capacity Modifier = 0.96511
   **   ~~~   ** ...Rated Total Cooling Capacity at Rated Conditions = Total Peak Design Load * Rated Total Cooling Capacity Modifier  / Peak Design Total Cooling Capacity Modifier
   **   ~~~   ** ...Rated Sensible Cooling Capacity at Rated Conditions = Peak Design Sensible Load * Rated Sensible Cooling Capacity Modifier  / Peak Design Sensible Cooling Capacity Modifier
   **   ~~~   ** Carefully review the Load Side Total, Sensible, and Latent heat transfer rates
   **   ~~~   ** ... to ensure they meet the expected manufacturers performance specifications.
   ** Warning ** COIL:HEATING:WATERTOAIRHEATPUMP:EQUATIONFIT "TECHNIC-0-0 WAHP HEATING COIL"
   **   ~~~   ** ...used with COIL:COOLING:WATERTOAIRHEATPUMP:EQUATIONFIT "TECHNIC-0-0 WAHP COOLING COIL"
   **   ~~~   ** ...heating capacity is disproportionate (> 20% different) to total cooling capacity
   **   ~~~   ** ...heating capacity = 4000.000 W
   **   ~~~   ** ...cooling capacity = 365.043 W
   ** Warning ** COIL:COOLING:WATERTOAIRHEATPUMP:EQUATIONFIT "CORRIDOR-0-0 WAHP COOLING COIL"
   **   ~~~   ** SizeWaterToAirCoil: Rated Sensible Cooling Capacity > Rated Total Cooling Capacity
   **   ~~~   ** Both of these capacity inputs have been autosized.
   **   ~~~   ** Rated Sensible Cooling Capacity at Rated Conditions = 1384.69 W
   **   ~~~   ** Rated Total Cooling Capacity at Rated Conditions    = 952.10 W
   **   ~~~   ** See eio file for further details.
   **   ~~~   ** Check Total and Sensible Cooling Capacity coefficients in curves to ensure they are accurate.
   **   ~~~   ** Check Zone and System Sizing objects to verify sizing inputs.
   **   ~~~   ** Sizing statistics:
   **   ~~~   ** Rated entering Air Wet-Bulb Temperature = 19.000 C
   **   ~~~   ** Peak entering Air Wet-Bulb Temperature = 17.209 C
   **   ~~~   ** Entering Water Temperature used = 30.000 C
   **   ~~~   ** Design air and water flow rates = 1.0
   **   ~~~   ** Rated ratio of load-side air wet-bulb temperature to 283.15 C (Rated ratioTWB) = 1.031
   **   ~~~   ** Rated ratio of source-side inlet water temperature to 283.15 C (Rated ratioTS)  = 1.070
   **   ~~~   ** Peak ratio of load-side air wet-bulb temperature to 283.15 C (Peak ratioTWB) = 1.025
   **   ~~~   ** Peak ratio of source-side inlet water temperature to 283.15 C (Peak ratioTS)  = 1.084
   **   ~~~   ** Rated Total Cooling Capacity Modifier = 1.00000
   **   ~~~   ** Peak Design Total Cooling Capacity Modifier = 0.90513
   **   ~~~   ** Rated Sensible Cooling Capacity Modifier = 1.00000
   **   ~~~   ** Peak Design Sensible Cooling Capacity Modifier = 0.98266
   **   ~~~   ** ...Rated Total Cooling Capacity at Rated Conditions = Total Peak Design Load * Rated Total Cooling Capacity Modifier  / Peak Design Total Cooling Capacity Modifier
   **   ~~~   ** ...Rated Sensible Cooling Capacity at Rated Conditions = Peak Design Sensible Load * Rated Sensible Cooling Capacity Modifier  / Peak Design Sensible Cooling Capacity Modifier
   **   ~~~   ** Carefully review the Load Side Total, Sensible, and Latent heat transfer rates
   **   ~~~   ** ... to ensure they meet the expected manufacturers performance specifications.
   ** Warning ** COIL:HEATING:WATERTOAIRHEATPUMP:EQUATIONFIT "CORRIDOR-0-0 WAHP HEATING COIL"
   **   ~~~   ** ...used with COIL:COOLING:WATERTOAIRHEATPUMP:EQUATIONFIT "CORRIDOR-0-0 WAHP COOLING COIL"
   **   ~~~   ** ...heating capacity is disproportionate (> 20% different) to total cooling capacity
   **   ~~~   ** ...heating capacity = 4000.000 W
   **   ~~~   ** ...cooling capacity = 952.106 W
   ** Warning ** COIL:COOLING:WATERTOAIRHEATPUMP:EQUATIONFIT "OFFICE-1-0 WAHP COOLING COIL"
   **   ~~~   ** SizeWaterToAirCoil: Rated Sensible Cooling Capacity > Rated Total Cooling Capacity
   **   ~~~   ** Both of these capacity inputs have been autosized.
   **   ~~~   ** Rated Sensible Cooling Capacity at Rated Conditions = 2559.67 W
   **   ~~~   ** Rated Total Cooling Capacity at Rated Conditions    = 849.63 W
   **   ~~~   ** See eio file for further details.
   **   ~~~   ** Check Total and Sensible Cooling Capacity coefficients in curves to ensure they are accurate.
   **   ~~~   ** Check Zone and System Sizing objects to verify sizing inputs.
   **   ~~~   ** Sizing statistics:
   **   ~~~   ** Rated entering Air Wet-Bulb Temperature = 19.000 C
   **   ~~~   ** Peak entering Air Wet-Bulb Temperature = 17.372 C
   **   ~~~   ** Entering Water Temperature used = 30.000 C
   **   ~~~   ** Design air and water flow rates = 1.0
   **   ~~~   ** Rated ratio of load-side air wet-bulb temperature to 283.15 C (Rated ratioTWB) = 1.031
   **   ~~~   ** Rated ratio of source-side inlet water temperature to 283.15 C (Rated ratioTS)  = 1.070
   **   ~~~   ** Peak ratio of load-side air wet-bulb temperature to 283.15 C (Peak ratioTWB) = 1.026
   **   ~~~   ** Peak ratio of source-side inlet water temperature to 283.15 C (Peak ratioTS)  = 1.084
   **   ~~~   ** Rated Total Cooling Capacity Modifier = 1.00000
   **   ~~~   ** Peak Design Total Cooling Capacity Modifier = 0.91151
   **   ~~~   ** Rated Sensible Cooling Capacity Modifier = 1.00000
   **   ~~~   ** Peak Design Sensible Cooling Capacity Modifier = 0.98954
   **   ~~~   ** ...Rated Total Cooling Capacity at Rated Conditions = Total Peak Design Load * Rated Total Cooling Capacity Modifier  / Peak Design Total Cooling Capacity Modifier
   **   ~~~   ** ...Rated Sensible Cooling Capacity at Rated Conditions = Peak Design Sensible Load * Rated Sensible Cooling Capacity Modifier  / Peak Design Sensible Cooling Capacity Modifier
   **   ~~~   ** Carefully review the Load Side Total, Sensible, and Latent heat transfer rates
   **   ~~~   ** ... to ensure they meet the expected manufacturers performance specifications.
   ** Warning ** COIL:HEATING:WATERTOAIRHEATPUMP:EQUATIONFIT "OFFICE-1-0 WAHP HEATING COIL"
   **   ~~~   ** ...used with COIL:COOLING:WATERTOAIRHEATPUMP:EQUATIONFIT "OFFICE-1-0 WAHP COOLING COIL"
   **   ~~~   ** ...heating capacity is disproportionate (> 20% different) to total cooling capacity
   **   ~~~   ** ...heating capacity = 4000.000 W
   **   ~~~   ** ...cooling capacity = 849.638 W
   ** Warning ** COIL:COOLING:WATERTOAIRHEATPUMP:EQUATIONFIT "OFFICE-1-1 WAHP COOLING COIL"
   **   ~~~   ** SizeWaterToAirCoil: Rated Sensible Cooling Capacity > Rated Total Cooling Capacity
   **   ~~~   ** Both of these capacity inputs have been autosized.
   **   ~~~   ** Rated Sensible Cooling Capacity at Rated Conditions = 2314.07 W
   **   ~~~   ** Rated Total Cooling Capacity at Rated Conditions    = 792.91 W
   **   ~~~   ** See eio file for further details.
   **   ~~~   ** Check Total and Sensible Cooling Capacity coefficients in curves to ensure they are accurate.
   **   ~~~   ** Check Zone and System Sizing objects to verify sizing inputs.
   **   ~~~   ** Sizing statistics:
   **   ~~~   ** Rated entering Air Wet-Bulb Temperature = 19.000 C
   **   ~~~   ** Peak entering Air Wet-Bulb Temperature = 17.612 C
   **   ~~~   ** Entering Water Temperature used = 30.000 C
   **   ~~~   ** Design air and water flow rates = 1.0
   **   ~~~   ** Rated ratio of load-side air wet-bulb temperature to 283.15 C (Rated ratioTWB) = 1.031
   **   ~~~   ** Rated ratio of source-side inlet water temperature to 283.15 C (Rated ratioTS)  = 1.070
   **   ~~~   ** Peak ratio of load-side air wet-bulb temperature to 283.15 C (Peak ratioTWB) = 1.026
   **   ~~~   ** Peak ratio of source-side inlet water temperature to 283.15 C (Peak ratioTS)  = 1.084
   **   ~~~   ** Rated Total Cooling Capacity Modifier = 1.00000
   **   ~~~   ** Peak Design Total Cooling Capacity Modifier = 0.92091
   **   ~~~   ** Rated Sensible Cooling Capacity Modifier = 1.00000
   **   ~~~   ** Peak Design Sensible Cooling Capacity Modifier = 0.99117
   **   ~~~   ** ...Rated Total Cooling Capacity at Rated Conditions = Total Peak Design Load * Rated Total Cooling Capacity Modifier  / Peak Design Total Cooling Capacity Modifier
   **   ~~~   ** ...Rated Sensible Cooling Capacity at Rated Conditions = Peak Design Sensible Load * Rated Sensible Cooling Capacity Modifier  / Peak Design Sensible Cooling Capacity Modifier
   **   ~~~   ** Carefully review the Load Side Total, Sensible, and Latent heat transfer rates
   **   ~~~   ** ... to ensure they meet the expected manufacturers performance specifications.
   ** Warning ** COIL:HEATING:WATERTOAIRHEATPUMP:EQUATIONFIT "OFFICE-1-1 WAHP HEATING COIL"
   **   ~~~   ** ...used with COIL:COOLING:WATERTOAIRHEATPUMP:EQUATIONFIT "OFFICE-1-1 WAHP COOLING COIL"
   **   ~~~   ** ...heating capacity is disproportionate (> 20% different) to total cooling capacity
   **   ~~~   ** ...heating capacity = 4000.000 W
   **   ~~~   ** ...cooling capacity = 792.918 W
   ** Warning ** COIL:COOLING:WATERTOAIRHEATPUMP:EQUATIONFIT "OFFICE-1-2 WAHP COOLING COIL"
   **   ~~~   ** SizeWaterToAirCoil: Rated Sensible Cooling Capacity > Rated Total Cooling Capacity
   **   ~~~   ** Both of these capacity inputs have been autosized.
   **   ~~~   ** Rated Sensible Cooling Capacity at Rated Conditions = 2822.11 W
   **   ~~~   ** Rated Total Cooling Capacity at Rated Conditions    = 645.37 W
   **   ~~~   ** See eio file for further details.
   **   ~~~   ** Check Total and Sensible Cooling Capacity coefficients in curves to ensure they are accurate.
   **   ~~~   ** Check Zone and System Sizing objects to verify sizing inputs.
   **   ~~~   ** Sizing statistics:
   **   ~~~   ** Rated entering Air Wet-Bulb Temperature = 19.000 C
   **   ~~~   ** Peak entering Air Wet-Bulb Temperature = 17.093 C
   **   ~~~   ** Entering Water Temperature used = 30.000 C
   **   ~~~   ** Design air and water flow rates = 1.0
   **   ~~~   ** Rated ratio of load-side air wet-bulb temperature to 283.15 C (Rated ratioTWB) = 1.031
   **   ~~~   ** Rated ratio of source-side inlet water temperature to 283.15 C (Rated ratioTS)  = 1.070
   **   ~~~   ** Peak ratio of load-side air wet-bulb temperature to 283.15 C (Peak ratioTWB) = 1.025
   **   ~~~   ** Peak ratio of source-side inlet water temperature to 283.15 C (Peak ratioTS)  = 1.084
   **   ~~~   ** Rated Total Cooling Capacity Modifier = 1.00000
   **   ~~~   ** Peak Design Total Cooling Capacity Modifier = 0.90059
   **   ~~~   ** Rated Sensible Cooling Capacity Modifier = 1.00000
   **   ~~~   ** Peak Design Sensible Cooling Capacity Modifier = 0.91802
   **   ~~~   ** ...Rated Total Cooling Capacity at Rated Conditions = Total Peak Design Load * Rated Total Cooling Capacity Modifier  / Peak Design Total Cooling Capacity Modifier
   **   ~~~   ** ...Rated Sensible Cooling Capacity at Rated Conditions = Peak Design Sensible Load * Rated Sensible Cooling Capacity Modifier  / Peak Design Sensible Cooling Capacity Modifier
   **   ~~~   ** Carefully review the Load Side Total, Sensible, and Latent heat transfer rates
   **   ~~~   ** ... to ensure they meet the expected manufacturers performance specifications.
   ** Warning ** COIL:HEATING:WATERTOAIRHEATPUMP:EQUATIONFIT "OFFICE-1-2 WAHP HEATING COIL"
   **   ~~~   ** ...used with COIL:COOLING:WATERTOAIRHEATPUMP:EQUATIONFIT "OFFICE-1-2 WAHP COOLING COIL"
   **   ~~~   ** ...heating capacity is disproportionate (> 20% different) to total cooling capacity
   **   ~~~   ** ...heating capacity = 4000.000 W
   **   ~~~   ** ...cooling capacity = 645.377 W
   ** Warning ** COIL:COOLING:WATERTOAIRHEATPUMP:EQUATIONFIT "OFFICE-1-3 WAHP COOLING COIL"
   **   ~~~   ** SizeWaterToAirCoil: Rated Sensible Cooling Capacity > Rated Total Cooling Capacity
   **   ~~~   ** Both of these capacity inputs have been autosized.
   **   ~~~   ** Rated Sensible Cooling Capacity at Rated Conditions = 2954.98 W
   **   ~~~   ** Rated Total Cooling Capacity at Rated Conditions    = 771.34 W
   **   ~~~   ** See eio file for further details.
   **   ~~~   ** Check Total and Sensible Cooling Capacity coefficients in curves to ensure they are accurate.
   **   ~~~   ** Check Zone and System Sizing objects to verify sizing inputs.
   **   ~~~   ** Sizing statistics:
   **   ~~~   ** Rated entering Air Wet-Bulb Temperature = 19.000 C
   **   ~~~   ** Peak entering Air Wet-Bulb Temperature = 17.028 C
   **   ~~~   ** Entering Water Temperature used = 30.000 C
   **   ~~~   ** Design air and water flow rates = 1.0
   **   ~~~   ** Rated ratio of load-side air wet-bulb temperature to 283.15 C (Rated ratioTWB) = 1.031
   **   ~~~   ** Rated ratio of source-side inlet water temperature to 283.15 C (Rated ratioTS)  = 1.070
   **   ~~~   ** Peak ratio of load-side air wet-bulb temperature to 283.15 C (Peak ratioTWB) = 1.024
   **   ~~~   ** Peak ratio of source-side inlet water temperature to 283.15 C (Peak ratioTS)  = 1.084
   **   ~~~   ** Rated Total Cooling Capacity Modifier = 1.00000
   **   ~~~   ** Peak Design Total Cooling Capacity Modifier = 0.89803
   **   ~~~   ** Rated Sensible Cooling Capacity Modifier = 1.00000
   **   ~~~   ** Peak Design Sensible Cooling Capacity Modifier = 0.94822
   **   ~~~   ** ...Rated Total Cooling Capacity at Rated Conditions = Total Peak Design Load * Rated Total Cooling Capacity Modifier  / Peak Design Total Cooling Capacity Modifier
   **   ~~~   ** ...Rated Sensible Cooling Capacity at Rated Conditions = Peak Design Sensible Load * Rated Sensible Cooling Capacity Modifier  / Peak Design Sensible Cooling Capacity Modifier
   **   ~~~   ** Carefully review the Load Side Total, Sensible, and Latent heat transfer rates
   **   ~~~   ** ... to ensure they meet the expected manufacturers performance specifications.
   ** Warning ** COIL:HEATING:WATERTOAIRHEATPUMP:EQUATIONFIT "OFFICE-1-3 WAHP HEATING COIL"
   **   ~~~   ** ...used with COIL:COOLING:WATERTOAIRHEATPUMP:EQUATIONFIT "OFFICE-1-3 WAHP COOLING COIL"
   **   ~~~   ** ...heating capacity is disproportionate (> 20% different) to total cooling capacity
   **   ~~~   ** ...heating capacity = 4000.000 W
   **   ~~~   ** ...cooling capacity = 771.348 W
   ** Warning ** COIL:COOLING:WATERTOAIRHEATPUMP:EQUATIONFIT "TOILET-1-0 WAHP COOLING COIL"
   **   ~~~   ** SizeWaterToAirCoil: Rated Sensible Cooling Capacity > Rated Total Cooling Capacity
   **   ~~~   ** Both of these capacity inputs have been autosized.
   **   ~~~   ** Rated Sensible Cooling Capacity at Rated Conditions = 284.72 W
   **   ~~~   ** Rated Total Cooling Capacity at Rated Conditions    = 23.28 W
   **   ~~~   ** See eio file for further details.
   **   ~~~   ** Check Total and Sensible Cooling Capacity coefficients in curves to ensure they are accurate.
   **   ~~~   ** Check Zone and System Sizing objects to verify sizing inputs.
   **   ~~~   ** Sizing statistics:
   **   ~~~   ** Rated entering Air Wet-Bulb Temperature = 19.000 C
   **   ~~~   ** Peak entering Air Wet-Bulb Temperature = 17.396 C
   **   ~~~   ** Entering Water Temperature used = 30.000 C
   **   ~~~   ** Design air and water flow rates = 1.0
   **   ~~~   ** Rated ratio of load-side air wet-bulb temperature to 283.15 C (Rated ratioTWB) = 1.031
   **   ~~~   ** Rated ratio of source-side inlet water temperature to 283.15 C (Rated ratioTS)  = 1.070
   **   ~~~   ** Peak ratio of load-side air wet-bulb temperature to 283.15 C (Peak ratioTWB) = 1.026
   **   ~~~   ** Peak ratio of source-side inlet water temperature to 283.15 C (Peak ratioTS)  = 1.084
   **   ~~~   ** Rated Total Cooling Capacity Modifier = 1.00000
   **   ~~~   ** Peak Design Total Cooling Capacity Modifier = 0.91246
   **   ~~~   ** Rated Sensible Cooling Capacity Modifier = 1.00000
   **   ~~~   ** Peak Design Sensible Cooling Capacity Modifier = 0.99828
   **   ~~~   ** ...Rated Total Cooling Capacity at Rated Conditions = Total Peak Design Load * Rated Total Cooling Capacity Modifier  / Peak Design Total Cooling Capacity Modifier
   **   ~~~   ** ...Rated Sensible Cooling Capacity at Rated Conditions = Peak Design Sensible Load * Rated Sensible Cooling Capacity Modifier  / Peak Design Sensible Cooling Capacity Modifier
   **   ~~~   ** Carefully review the Load Side Total, Sensible, and Latent heat transfer rates
   **   ~~~   ** ... to ensure they meet the expected manufacturers performance specifications.
   ** Warning ** COIL:HEATING:WATERTOAIRHEATPUMP:EQUATIONFIT "TOILET-1-0 WAHP HEATING COIL"
   **   ~~~   ** ...used with COIL:COOLING:WATERTOAIRHEATPUMP:EQUATIONFIT "TOILET-1-0 WAHP COOLING COIL"
   **   ~~~   ** ...heating capacity is disproportionate (> 20% different) to total cooling capacity
   **   ~~~   ** ...heating capacity = 4000.000 W
   **   ~~~   ** ...cooling capacity = 23.289 W
   ** Warning ** COIL:COOLING:WATERTOAIRHEATPUMP:EQUATIONFIT "STAIRS-1-0 WAHP COOLING COIL"
   **   ~~~   ** SizeWaterToAirCoil: Rated Sensible Cooling Capacity > Rated Total Cooling Capacity
   **   ~~~   ** Both of these capacity inputs have been autosized.
   **   ~~~   ** Rated Sensible Cooling Capacity at Rated Conditions = 602.28 W
   **   ~~~   ** Rated Total Cooling Capacity at Rated Conditions    = 292.36 W
   **   ~~~   ** See eio file for further details.
   **   ~~~   ** Check Total and Sensible Cooling Capacity coefficients in curves to ensure they are accurate.
   **   ~~~   ** Check Zone and System Sizing objects to verify sizing inputs.
   **   ~~~   ** Sizing statistics:
   **   ~~~   ** Rated entering Air Wet-Bulb Temperature = 19.000 C
   **   ~~~   ** Peak entering Air Wet-Bulb Temperature = 17.429 C
   **   ~~~   ** Entering Water Temperature used = 30.000 C
   **   ~~~   ** Design air and water flow rates = 1.0
   **   ~~~   ** Rated ratio of load-side air wet-bulb temperature to 283.15 C (Rated ratioTWB) = 1.031
   **   ~~~   ** Rated ratio of source-side inlet water temperature to 283.15 C (Rated ratioTS)  = 1.070
   **   ~~~   ** Peak ratio of load-side air wet-bulb temperature to 283.15 C (Peak ratioTWB) = 1.026
   **   ~~~   ** Peak ratio of source-side inlet water temperature to 283.15 C (Peak ratioTS)  = 1.084
   **   ~~~   ** Rated Total Cooling Capacity Modifier = 1.00000
   **   ~~~   ** Peak Design Total Cooling Capacity Modifier = 0.91373
   **   ~~~   ** Rated Sensible Cooling Capacity Modifier = 1.00000
   **   ~~~   ** Peak Design Sensible Cooling Capacity Modifier = 0.98464
   **   ~~~   ** ...Rated Total Cooling Capacity at Rated Conditions = Total Peak Design Load * Rated Total Cooling Capacity Modifier  / Peak Design Total Cooling Capacity Modifier
   **   ~~~   ** ...Rated Sensible Cooling Capacity at Rated Conditions = Peak Design Sensible Load * Rated Sensible Cooling Capacity Modifier  / Peak Design Sensible Cooling Capacity Modifier
   **   ~~~   ** Carefully review the Load Side Total, Sensible, and Latent heat transfer rates
   **   ~~~   ** ... to ensure they meet the expected manufacturers performance specifications.
   ** Warning ** COIL:HEATING:WATERTOAIRHEATPUMP:EQUATIONFIT "STAIRS-1-0 WAHP HEATING COIL"
   **   ~~~   ** ...used with COIL:COOLING:WATERTOAIRHEATPUMP:EQUATIONFIT "STAIRS-1-0 WAHP COOLING COIL"
   **   ~~~   ** ...heating capacity is disproportionate (> 20% different) to total cooling capacity
   **   ~~~   ** ...heating capacity = 4000.000 W
   **   ~~~   ** ...cooling capacity = 292.365 W
   ** Warning ** COIL:COOLING:WATERTOAIRHEATPUMP:EQUATIONFIT "SERVICE-1-0 WAHP COOLING COIL"
   **   ~~~   ** SizeWaterToAirCoil: Rated Sensible Cooling Capacity > Rated Total Cooling Capacity
   **   ~~~   ** Both of these capacity inputs have been autosized.
   **   ~~~   ** Rated Sensible Cooling Capacity at Rated Conditions = 685.43 W
   **   ~~~   ** Rated Total Cooling Capacity at Rated Conditions    = 344.29 W
   **   ~~~   ** See eio file for further details.
   **   ~~~   ** Check Total and Sensible Cooling Capacity coefficients in curves to ensure they are accurate.
   **   ~~~   ** Check Zone and System Sizing objects to verify sizing inputs.
   **   ~~~   ** Sizing statistics:
   **   ~~~   ** Rated entering Air Wet-Bulb Temperature = 19.000 C
   **   ~~~   ** Peak entering Air Wet-Bulb Temperature = 16.249 C
   **   ~~~   ** Entering Water Temperature used = 30.000 C
   **   ~~~   ** Design air and water flow rates = 1.0
   **   ~~~   ** Rated ratio of load-side air wet-bulb temperature to 283.15 C (Rated ratioTWB) = 1.031
   **   ~~~   ** Rated ratio of source-side inlet water temperature to 283.15 C (Rated ratioTS)  = 1.070
   **   ~~~   ** Peak ratio of load-side air wet-bulb temperature to 283.15 C (Peak ratioTWB) = 1.022
   **   ~~~   ** Peak ratio of source-side inlet water temperature to 283.15 C (Peak ratioTS)  = 1.084
   **   ~~~   ** Rated Total Cooling Capacity Modifier = 1.00000
   **   ~~~   ** Peak Design Total Cooling Capacity Modifier = 0.86754
   **   ~~~   ** Rated Sensible Cooling Capacity Modifier = 1.00000
   **   ~~~   ** Peak Design Sensible Cooling Capacity Modifier = 0.97073
   **   ~~~   ** ...Rated Total Cooling Capacity at Rated Conditions = Total Peak Design Load * Rated Total Cooling Capacity Modifier  / Peak Design Total Cooling Capacity Modifier
   **   ~~~   ** ...Rated Sensible Cooling Capacity at Rated Conditions = Peak Design Sensible Load * Rated Sensible Cooling Capacity Modifier  / Peak Design Sensible Cooling Capacity Modifier
   **   ~~~   ** Carefully review the Load Side Total, Sensible, and Latent heat transfer rates
   **   ~~~   ** ... to ensure they meet the expected manufacturers performance specifications.
   ** Warning ** COIL:HEATING:WATERTOAIRHEATPUMP:EQUATIONFIT "SERVICE-1-0 WAHP HEATING COIL"
   **   ~~~   ** ...used with COIL:COOLING:WATERTOAIRHEATPUMP:EQUATIONFIT "SERVICE-1-0 WAHP COOLING COIL"
   **   ~~~   ** ...heating capacity is disproportionate (> 20% different) to total cooling capacity
   **   ~~~   ** ...heating capacity = 4000.000 W
   **   ~~~   ** ...cooling capacity = 344.293 W
   ** Warning ** COIL:COOLING:WATERTOAIRHEATPUMP:EQUATIONFIT "CORRIDOR-1-0 WAHP COOLING COIL"
   **   ~~~   ** SizeWaterToAirCoil: Rated Sensible Cooling Capacity > Rated Total Cooling Capacity
   **   ~~~   ** Both of these capacity inputs have been autosized.
   **   ~~~   ** Rated Sensible Cooling Capacity at Rated Conditions = 1747.68 W
   **   ~~~   ** Rated Total Cooling Capacity at Rated Conditions    = 331.31 W
   **   ~~~   ** See eio file for further details.
   **   ~~~   ** Check Total and Sensible Cooling Capacity coefficients in curves to ensure they are accurate.
   **   ~~~   ** Check Zone and System Sizing objects to verify sizing inputs.
   **   ~~~   ** Sizing statistics:
   **   ~~~   ** Rated entering Air Wet-Bulb Temperature = 19.000 C
   **   ~~~   ** Peak entering Air Wet-Bulb Temperature = 16.783 C
   **   ~~~   ** Entering Water Temperature used = 30.000 C
   **   ~~~   ** Design air and water flow rates = 1.0
   **   ~~~   ** Rated ratio of load-side air wet-bulb temperature to 283.15 C (Rated ratioTWB) = 1.031
   **   ~~~   ** Rated ratio of source-side inlet water temperature to 283.15 C (Rated ratioTS)  = 1.070
   **   ~~~   ** Peak ratio of load-side air wet-bulb temperature to 283.15 C (Peak ratioTWB) = 1.023
   **   ~~~   ** Peak ratio of source-side inlet water temperature to 283.15 C (Peak ratioTS)  = 1.084
   **   ~~~   ** Rated Total Cooling Capacity Modifier = 1.00000
   **   ~~~   ** Peak Design Total Cooling Capacity Modifier = 0.88844
   **   ~~~   ** Rated Sensible Cooling Capacity Modifier = 1.00000
   **   ~~~   ** Peak Design Sensible Cooling Capacity Modifier = 0.98233
   **   ~~~   ** ...Rated Total Cooling Capacity at Rated Conditions = Total Peak Design Load * Rated Total Cooling Capacity Modifier  / Peak Design Total Cooling Capacity Modifier
   **   ~~~   ** ...Rated Sensible Cooling Capacity at Rated Conditions = Peak Design Sensible Load * Rated Sensible Cooling Capacity Modifier  / Peak Design Sensible Cooling Capacity Modifier
   **   ~~~   ** Carefully review the Load Side Total, Sensible, and Latent heat transfer rates
   **   ~~~   ** ... to ensure they meet the expected manufacturers performance specifications.
   ** Warning ** COIL:HEATING:WATERTOAIRHEATPUMP:EQUATIONFIT "CORRIDOR-1-0 WAHP HEATING COIL"
   **   ~~~   ** ...used with COIL:COOLING:WATERTOAIRHEATPUMP:EQUATIONFIT "CORRIDOR-1-0 WAHP COOLING COIL"
   **   ~~~   ** ...heating capacity is disproportionate (> 20% different) to total cooling capacity
   **   ~~~   ** ...heating capacity = 4000.000 W
   **   ~~~   ** ...cooling capacity = 331.314 W
   ** Warning ** COIL:COOLING:WATERTOAIRHEATPUMP:EQUATIONFIT "OFFICE-2-0 WAHP COOLING COIL"
   **   ~~~   ** SizeWaterToAirCoil: Rated Sensible Cooling Capacity > Rated Total Cooling Capacity
   **   ~~~   ** Both of these capacity inputs have been autosized.
   **   ~~~   ** Rated Sensible Cooling Capacity at Rated Conditions = 2415.14 W
   **   ~~~   ** Rated Total Cooling Capacity at Rated Conditions    = 966.38 W
   **   ~~~   ** See eio file for further details.
   **   ~~~   ** Check Total and Sensible Cooling Capacity coefficients in curves to ensure they are accurate.
   **   ~~~   ** Check Zone and System Sizing objects to verify sizing inputs.
   **   ~~~   ** Sizing statistics:
   **   ~~~   ** Rated entering Air Wet-Bulb Temperature = 19.000 C
   **   ~~~   ** Peak entering Air Wet-Bulb Temperature = 17.554 C
   **   ~~~   ** Entering Water Temperature used = 30.000 C
   **   ~~~   ** Design air and water flow rates = 1.0
   **   ~~~   ** Rated ratio of load-side air wet-bulb temperature to 283.15 C (Rated ratioTWB) = 1.031
   **   ~~~   ** Rated ratio of source-side inlet water temperature to 283.15 C (Rated ratioTS)  = 1.070
   **   ~~~   ** Peak ratio of load-side air wet-bulb temperature to 283.15 C (Peak ratioTWB) = 1.026
   **   ~~~   ** Peak ratio of source-side inlet water temperature to 283.15 C (Peak ratioTS)  = 1.084
   **   ~~~   ** Rated Total Cooling Capacity Modifier = 1.00000
   **   ~~~   ** Peak Design Total Cooling Capacity Modifier = 0.91863
   **   ~~~   ** Rated Sensible Cooling Capacity Modifier = 1.00000
   **   ~~~   ** Peak Design Sensible Cooling Capacity Modifier = 0.98623
   **   ~~~   ** ...Rated Total Cooling Capacity at Rated Conditions = Total Peak Design Load * Rated Total Cooling Capacity Modifier  / Peak Design Total Cooling Capacity Modifier
   **   ~~~   ** ...Rated Sensible Cooling Capacity at Rated Conditions = Peak Design Sensible Load * Rated Sensible Cooling Capacity Modifier  / Peak Design Sensible Cooling Capacity Modifier
   **   ~~~   ** Carefully review the Load Side Total, Sensible, and Latent heat transfer rates
   **   ~~~   ** ... to ensure they meet the expected manufacturers performance specifications.
   ** Warning ** COIL:HEATING:WATERTOAIRHEATPUMP:EQUATIONFIT "OFFICE-2-0 WAHP HEATING COIL"
   **   ~~~   ** ...used with COIL:COOLING:WATERTOAIRHEATPUMP:EQUATIONFIT "OFFICE-2-0 WAHP COOLING COIL"
   **   ~~~   ** ...heating capacity is disproportionate (> 20% different) to total cooling capacity
   **   ~~~   ** ...heating capacity = 4000.000 W
   **   ~~~   ** ...cooling capacity = 966.388 W
   ** Warning ** COIL:COOLING:WATERTOAIRHEATPUMP:EQUATIONFIT "OFFICE-2-1 WAHP COOLING COIL"
   **   ~~~   ** SizeWaterToAirCoil: Rated Sensible Cooling Capacity > Rated Total Cooling Capacity
   **   ~~~   ** Both of these capacity inputs have been autosized.
   **   ~~~   ** Rated Sensible Cooling Capacity at Rated Conditions = 1514.28 W
   **   ~~~   ** Rated Total Cooling Capacity at Rated Conditions    = 652.05 W
   **   ~~~   ** See eio file for further details.
   **   ~~~   ** Check Total and Sensible Cooling Capacity coefficients in curves to ensure they are accurate.
   **   ~~~   ** Check Zone and System Sizing objects to verify sizing inputs.
   **   ~~~   ** Sizing statistics:
   **   ~~~   ** Rated entering Air Wet-Bulb Temperature = 19.000 C
   **   ~~~   ** Peak entering Air Wet-Bulb Temperature = 17.793 C
   **   ~~~   ** Entering Water Temperature used = 30.000 C
   **   ~~~   ** Design air and water flow rates = 1.0
   **   ~~~   ** Rated ratio of load-side air wet-bulb temperature to 283.15 C (Rated ratioTWB) = 1.031
   **   ~~~   ** Rated ratio of source-side inlet water temperature to 283.15 C (Rated ratioTS)  = 1.070
   **   ~~~   ** Peak ratio of load-side air wet-bulb temperature to 283.15 C (Peak ratioTWB) = 1.027
   **   ~~~   ** Peak ratio of source-side inlet water temperature to 283.15 C (Peak ratioTS)  = 1.084
   **   ~~~   ** Rated Total Cooling Capacity Modifier = 1.00000
   **   ~~~   ** Peak Design Total Cooling Capacity Modifier = 0.92800
   **   ~~~   ** Rated Sensible Cooling Capacity Modifier = 1.00000
   **   ~~~   ** Peak Design Sensible Cooling Capacity Modifier = 0.98875
   **   ~~~   ** ...Rated Total Cooling Capacity at Rated Conditions = Total Peak Design Load * Rated Total Cooling Capacity Modifier  / Peak Design Total Cooling Capacity Modifier
   **   ~~~   ** ...Rated Sensible Cooling Capacity at Rated Conditions = Peak Design Sensible Load * Rated Sensible Cooling Capacity Modifier  / Peak Design Sensible Cooling Capacity Modifier
   **   ~~~   ** Carefully review the Load Side Total, Sensible, and Latent heat transfer rates
   **   ~~~   ** ... to ensure they meet the expected manufacturers performance specifications.
   ** Warning ** COIL:HEATING:WATERTOAIRHEATPUMP:EQUATIONFIT "OFFICE-2-1 WAHP HEATING COIL"
   **   ~~~   ** ...used with COIL:COOLING:WATERTOAIRHEATPUMP:EQUATIONFIT "OFFICE-2-1 WAHP COOLING COIL"
   **   ~~~   ** ...heating capacity is disproportionate (> 20% different) to total cooling capacity
   **   ~~~   ** ...heating capacity = 4000.000 W
   **   ~~~   ** ...cooling capacity = 652.057 W
   ** Warning ** COIL:COOLING:WATERTOAIRHEATPUMP:EQUATIONFIT "OFFICE-2-4 WAHP COOLING COIL"
   **   ~~~   ** SizeWaterToAirCoil: Rated Sensible Cooling Capacity > Rated Total Cooling Capacity
   **   ~~~   ** Both of these capacity inputs have been autosized.
   **   ~~~   ** Rated Sensible Cooling Capacity at Rated Conditions = 1572.27 W
   **   ~~~   ** Rated Total Cooling Capacity at Rated Conditions    = 1022.26 W
   **   ~~~   ** See eio file for further details.
   **   ~~~   ** Check Total and Sensible Cooling Capacity coefficients in curves to ensure they are accurate.
   **   ~~~   ** Check Zone and System Sizing objects to verify sizing inputs.
   **   ~~~   ** Sizing statistics:
   **   ~~~   ** Rated entering Air Wet-Bulb Temperature = 19.000 C
   **   ~~~   ** Peak entering Air Wet-Bulb Temperature = 17.927 C
   **   ~~~   ** Entering Water Temperature used = 30.000 C
   **   ~~~   ** Design air and water flow rates = 1.0
   **   ~~~   ** Rated ratio of load-side air wet-bulb temperature to 283.15 C (Rated ratioTWB) = 1.031
   **   ~~~   ** Rated ratio of source-side inlet water temperature to 283.15 C (Rated ratioTS)  = 1.070
   **   ~~~   ** Peak ratio of load-side air wet-bulb temperature to 283.15 C (Peak ratioTWB) = 1.027
   **   ~~~   ** Peak ratio of source-side inlet water temperature to 283.15 C (Peak ratioTS)  = 1.084
   **   ~~~   ** Rated Total Cooling Capacity Modifier = 1.00000
   **   ~~~   ** Peak Design Total Cooling Capacity Modifier = 0.93323
   **   ~~~   ** Rated Sensible Cooling Capacity Modifier = 1.00000
   **   ~~~   ** Peak Design Sensible Cooling Capacity Modifier = 0.98575
   **   ~~~   ** ...Rated Total Cooling Capacity at Rated Conditions = Total Peak Design Load * Rated Total Cooling Capacity Modifier  / Peak Design Total Cooling Capacity Modifier
   **   ~~~   ** ...Rated Sensible Cooling Capacity at Rated Conditions = Peak Design Sensible Load * Rated Sensible Cooling Capacity Modifier  / Peak Design Sensible Cooling Capacity Modifier
   **   ~~~   ** Carefully review the Load Side Total, Sensible, and Latent heat transfer rates
   **   ~~~   ** ... to ensure they meet the expected manufacturers performance specifications.
   ** Warning ** COIL:HEATING:WATERTOAIRHEATPUMP:EQUATIONFIT "OFFICE-2-4 WAHP HEATING COIL"
   **   ~~~   ** ...used with COIL:COOLING:WATERTOAIRHEATPUMP:EQUATIONFIT "OFFICE-2-4 WAHP COOLING COIL"
   **   ~~~   ** ...heating capacity is disproportionate (> 20% different) to total cooling capacity
   **   ~~~   ** ...heating capacity = 4000.000 W
   **   ~~~   ** ...cooling capacity = 1022.260 W
   ** Warning ** COIL:COOLING:WATERTOAIRHEATPUMP:EQUATIONFIT "OFFICE-2-2 WAHP COOLING COIL"
   **   ~~~   ** SizeWaterToAirCoil: Rated Sensible Cooling Capacity > Rated Total Cooling Capacity
   **   ~~~   ** Both of these capacity inputs have been autosized.
   **   ~~~   ** Rated Sensible Cooling Capacity at Rated Conditions = 1851.99 W
   **   ~~~   ** Rated Total Cooling Capacity at Rated Conditions    = 537.09 W
   **   ~~~   ** See eio file for further details.
   **   ~~~   ** Check Total and Sensible Cooling Capacity coefficients in curves to ensure they are accurate.
   **   ~~~   ** Check Zone and System Sizing objects to verify sizing inputs.
   **   ~~~   ** Sizing statistics:
   **   ~~~   ** Rated entering Air Wet-Bulb Temperature = 19.000 C
   **   ~~~   ** Peak entering Air Wet-Bulb Temperature = 17.193 C
   **   ~~~   ** Entering Water Temperature used = 30.000 C
   **   ~~~   ** Design air and water flow rates = 1.0
   **   ~~~   ** Rated ratio of load-side air wet-bulb temperature to 283.15 C (Rated ratioTWB) = 1.031
   **   ~~~   ** Rated ratio of source-side inlet water temperature to 283.15 C (Rated ratioTS)  = 1.070
   **   ~~~   ** Peak ratio of load-side air wet-bulb temperature to 283.15 C (Peak ratioTWB) = 1.025
   **   ~~~   ** Peak ratio of source-side inlet water temperature to 283.15 C (Peak ratioTS)  = 1.084
   **   ~~~   ** Rated Total Cooling Capacity Modifier = 1.00000
   **   ~~~   ** Peak Design Total Cooling Capacity Modifier = 0.90450
   **   ~~~   ** Rated Sensible Cooling Capacity Modifier = 1.00000
   **   ~~~   ** Peak Design Sensible Cooling Capacity Modifier = 0.91253
   **   ~~~   ** ...Rated Total Cooling Capacity at Rated Conditions = Total Peak Design Load * Rated Total Cooling Capacity Modifier  / Peak Design Total Cooling Capacity Modifier
   **   ~~~   ** ...Rated Sensible Cooling Capacity at Rated Conditions = Peak Design Sensible Load * Rated Sensible Cooling Capacity Modifier  / Peak Design Sensible Cooling Capacity Modifier
   **   ~~~   ** Carefully review the Load Side Total, Sensible, and Latent heat transfer rates
   **   ~~~   ** ... to ensure they meet the expected manufacturers performance specifications.
   ** Warning ** COIL:HEATING:WATERTOAIRHEATPUMP:EQUATIONFIT "OFFICE-2-2 WAHP HEATING COIL"
   **   ~~~   ** ...used with COIL:COOLING:WATERTOAIRHEATPUMP:EQUATIONFIT "OFFICE-2-2 WAHP COOLING COIL"
   **   ~~~   ** ...heating capacity is disproportionate (> 20% different) to total cooling capacity
   **   ~~~   ** ...heating capacity = 4000.000 W
   **   ~~~   ** ...cooling capacity = 537.092 W
   ** Warning ** COIL:COOLING:WATERTOAIRHEATPUMP:EQUATIONFIT "OFFICE-2-3 WAHP COOLING COIL"
   **   ~~~   ** SizeWaterToAirCoil: Rated Sensible Cooling Capacity > Rated Total Cooling Capacity
   **   ~~~   ** Both of these capacity inputs have been autosized.
   **   ~~~   ** Rated Sensible Cooling Capacity at Rated Conditions = 2685.75 W
   **   ~~~   ** Rated Total Cooling Capacity at Rated Conditions    = 819.70 W
   **   ~~~   ** See eio file for further details.
   **   ~~~   ** Check Total and Sensible Cooling Capacity coefficients in curves to ensure they are accurate.
   **   ~~~   ** Check Zone and System Sizing objects to verify sizing inputs.
   **   ~~~   ** Sizing statistics:
   **   ~~~   ** Rated entering Air Wet-Bulb Temperature = 19.000 C
   **   ~~~   ** Peak entering Air Wet-Bulb Temperature = 17.134 C
   **   ~~~   ** Entering Water Temperature used = 30.000 C
   **   ~~~   ** Design air and water flow rates = 1.0
   **   ~~~   ** Rated ratio of load-side air wet-bulb temperature to 283.15 C (Rated ratioTWB) = 1.031
   **   ~~~   ** Rated ratio of source-side inlet water temperature to 283.15 C (Rated ratioTS)  = 1.070
   **   ~~~   ** Peak ratio of load-side air wet-bulb temperature to 283.15 C (Peak ratioTWB) = 1.025
   **   ~~~   ** Peak ratio of source-side inlet water temperature to 283.15 C (Peak ratioTS)  = 1.084
   **   ~~~   ** Rated Total Cooling Capacity Modifier = 1.00000
   **   ~~~   ** Peak Design Total Cooling Capacity Modifier = 0.90218
   **   ~~~   ** Rated Sensible Cooling Capacity Modifier = 1.00000
   **   ~~~   ** Peak Design Sensible Cooling Capacity Modifier = 0.91875
   **   ~~~   ** ...Rated Total Cooling Capacity at Rated Conditions = Total Peak Design Load * Rated Total Cooling Capacity Modifier  / Peak Design Total Cooling Capacity Modifier
   **   ~~~   ** ...Rated Sensible Cooling Capacity at Rated Conditions = Peak Design Sensible Load * Rated Sensible Cooling Capacity Modifier  / Peak Design Sensible Cooling Capacity Modifier
   **   ~~~   ** Carefully review the Load Side Total, Sensible, and Latent heat transfer rates
   **   ~~~   ** ... to ensure they meet the expected manufacturers performance specifications.
   ** Warning ** COIL:HEATING:WATERTOAIRHEATPUMP:EQUATIONFIT "OFFICE-2-3 WAHP HEATING COIL"
   **   ~~~   ** ...used with COIL:COOLING:WATERTOAIRHEATPUMP:EQUATIONFIT "OFFICE-2-3 WAHP COOLING COIL"
   **   ~~~   ** ...heating capacity is disproportionate (> 20% different) to total cooling capacity
   **   ~~~   ** ...heating capacity = 4000.000 W
   **   ~~~   ** ...cooling capacity = 819.700 W
   ** Warning ** COIL:COOLING:WATERTOAIRHEATPUMP:EQUATIONFIT "TOILET-2-0 WAHP COOLING COIL"
   **   ~~~   ** SizeWaterToAirCoil: Rated Sensible Cooling Capacity > Rated Total Cooling Capacity
   **   ~~~   ** Both of these capacity inputs have been autosized.
   **   ~~~   ** Rated Sensible Cooling Capacity at Rated Conditions = 274.77 W
   **   ~~~   ** Rated Total Cooling Capacity at Rated Conditions    = 265.56 W
   **   ~~~   ** See eio file for further details.
   **   ~~~   ** Check Total and Sensible Cooling Capacity coefficients in curves to ensure they are accurate.
   **   ~~~   ** Check Zone and System Sizing objects to verify sizing inputs.
   **   ~~~   ** Sizing statistics:
   **   ~~~   ** Rated entering Air Wet-Bulb Temperature = 19.000 C
   **   ~~~   ** Peak entering Air Wet-Bulb Temperature = 17.690 C
   **   ~~~   ** Entering Water Temperature used = 30.000 C
   **   ~~~   ** Design air and water flow rates = 1.0
   **   ~~~   ** Rated ratio of load-side air wet-bulb temperature to 283.15 C (Rated ratioTWB) = 1.031
   **   ~~~   ** Rated ratio of source-side inlet water temperature to 283.15 C (Rated ratioTS)  = 1.070
   **   ~~~   ** Peak ratio of load-side air wet-bulb temperature to 283.15 C (Peak ratioTWB) = 1.027
   **   ~~~   ** Peak ratio of source-side inlet water temperature to 283.15 C (Peak ratioTS)  = 1.084
   **   ~~~   ** Rated Total Cooling Capacity Modifier = 1.00000
   **   ~~~   ** Peak Design Total Cooling Capacity Modifier = 0.92397
   **   ~~~   ** Rated Sensible Cooling Capacity Modifier = 1.00000
   **   ~~~   ** Peak Design Sensible Cooling Capacity Modifier = 0.98977
   **   ~~~   ** ...Rated Total Cooling Capacity at Rated Conditions = Total Peak Design Load * Rated Total Cooling Capacity Modifier  / Peak Design Total Cooling Capacity Modifier
   **   ~~~   ** ...Rated Sensible Cooling Capacity at Rated Conditions = Peak Design Sensible Load * Rated Sensible Cooling Capacity Modifier  / Peak Design Sensible Cooling Capacity Modifier
   **   ~~~   ** Carefully review the Load Side Total, Sensible, and Latent heat transfer rates
   **   ~~~   ** ... to ensure they meet the expected manufacturers performance specifications.
   ** Warning ** COIL:HEATING:WATERTOAIRHEATPUMP:EQUATIONFIT "TOILET-2-0 WAHP HEATING COIL"
   **   ~~~   ** ...used with COIL:COOLING:WATERTOAIRHEATPUMP:EQUATIONFIT "TOILET-2-0 WAHP COOLING COIL"
   **   ~~~   ** ...heating capacity is disproportionate (> 20% different) to total cooling capacity
   **   ~~~   ** ...heating capacity = 4000.000 W
   **   ~~~   ** ...cooling capacity = 265.567 W
   ** Warning ** COIL:COOLING:WATERTOAIRHEATPUMP:EQUATIONFIT "STAIRS-2-0 WAHP COOLING COIL"
   **   ~~~   ** SizeWaterToAirCoil: Rated Sensible Cooling Capacity > Rated Total Cooling Capacity
   **   ~~~   ** Both of these capacity inputs have been autosized.
   **   ~~~   ** Rated Sensible Cooling Capacity at Rated Conditions = 566.88 W
   **   ~~~   ** Rated Total Cooling Capacity at Rated Conditions    = 552.02 W
   **   ~~~   ** See eio file for further details.
   **   ~~~   ** Check Total and Sensible Cooling Capacity coefficients in curves to ensure they are accurate.
   **   ~~~   ** Check Zone and System Sizing objects to verify sizing inputs.
   **   ~~~   ** Sizing statistics:
   **   ~~~   ** Rated entering Air Wet-Bulb Temperature = 19.000 C
   **   ~~~   ** Peak entering Air Wet-Bulb Temperature = 17.692 C
   **   ~~~   ** Entering Water Temperature used = 30.000 C
   **   ~~~   ** Design air and water flow rates = 1.0
   **   ~~~   ** Rated ratio of load-side air wet-bulb temperature to 283.15 C (Rated ratioTWB) = 1.031
   **   ~~~   ** Rated ratio of source-side inlet water temperature to 283.15 C (Rated ratioTS)  = 1.070
   **   ~~~   ** Peak ratio of load-side air wet-bulb temperature to 283.15 C (Peak ratioTWB) = 1.027
   **   ~~~   ** Peak ratio of source-side inlet water temperature to 283.15 C (Peak ratioTS)  = 1.084
   **   ~~~   ** Rated Total Cooling Capacity Modifier = 1.00000
   **   ~~~   ** Peak Design Total Cooling Capacity Modifier = 0.92404
   **   ~~~   ** Rated Sensible Cooling Capacity Modifier = 1.00000
   **   ~~~   ** Peak Design Sensible Cooling Capacity Modifier = 0.97803
   **   ~~~   ** ...Rated Total Cooling Capacity at Rated Conditions = Total Peak Design Load * Rated Total Cooling Capacity Modifier  / Peak Design Total Cooling Capacity Modifier
   **   ~~~   ** ...Rated Sensible Cooling Capacity at Rated Conditions = Peak Design Sensible Load * Rated Sensible Cooling Capacity Modifier  / Peak Design Sensible Cooling Capacity Modifier
   **   ~~~   ** Carefully review the Load Side Total, Sensible, and Latent heat transfer rates
   **   ~~~   ** ... to ensure they meet the expected manufacturers performance specifications.
   ** Warning ** COIL:HEATING:WATERTOAIRHEATPUMP:EQUATIONFIT "STAIRS-2-0 WAHP HEATING COIL"
   **   ~~~   ** ...used with COIL:COOLING:WATERTOAIRHEATPUMP:EQUATIONFIT "STAIRS-2-0 WAHP COOLING COIL"
   **   ~~~   ** ...heating capacity is disproportionate (> 20% different) to total cooling capacity
   **   ~~~   ** ...heating capacity = 4000.000 W
   **   ~~~   ** ...cooling capacity = 552.029 W
   ** Warning ** COIL:COOLING:WATERTOAIRHEATPUMP:EQUATIONFIT "TECHNIC-2-0 WAHP COOLING COIL"
   **   ~~~   ** SizeWaterToAirCoil: Rated Sensible Cooling Capacity > Rated Total Cooling Capacity
   **   ~~~   ** Both of these capacity inputs have been autosized.
   **   ~~~   ** Rated Sensible Cooling Capacity at Rated Conditions = 371.62 W
   **   ~~~   ** Rated Total Cooling Capacity at Rated Conditions    = 302.09 W
   **   ~~~   ** See eio file for further details.
   **   ~~~   ** Check Total and Sensible Cooling Capacity coefficients in curves to ensure they are accurate.
   **   ~~~   ** Check Zone and System Sizing objects to verify sizing inputs.
   **   ~~~   ** Sizing statistics:
   **   ~~~   ** Rated entering Air Wet-Bulb Temperature = 19.000 C
   **   ~~~   ** Peak entering Air Wet-Bulb Temperature = 16.691 C
   **   ~~~   ** Entering Water Temperature used = 30.000 C
   **   ~~~   ** Design air and water flow rates = 1.0
   **   ~~~   ** Rated ratio of load-side air wet-bulb temperature to 283.15 C (Rated ratioTWB) = 1.031
   **   ~~~   ** Rated ratio of source-side inlet water temperature to 283.15 C (Rated ratioTS)  = 1.070
   **   ~~~   ** Peak ratio of load-side air wet-bulb temperature to 283.15 C (Peak ratioTWB) = 1.023
   **   ~~~   ** Peak ratio of source-side inlet water temperature to 283.15 C (Peak ratioTS)  = 1.084
   **   ~~~   ** Rated Total Cooling Capacity Modifier = 1.00000
   **   ~~~   ** Peak Design Total Cooling Capacity Modifier = 0.88485
   **   ~~~   ** Rated Sensible Cooling Capacity Modifier = 1.00000
   **   ~~~   ** Peak Design Sensible Cooling Capacity Modifier = 0.94946
   **   ~~~   ** ...Rated Total Cooling Capacity at Rated Conditions = Total Peak Design Load * Rated Total Cooling Capacity Modifier  / Peak Design Total Cooling Capacity Modifier
   **   ~~~   ** ...Rated Sensible Cooling Capacity at Rated Conditions = Peak Design Sensible Load * Rated Sensible Cooling Capacity Modifier  / Peak Design Sensible Cooling Capacity Modifier
   **   ~~~   ** Carefully review the Load Side Total, Sensible, and Latent heat transfer rates
   **   ~~~   ** ... to ensure they meet the expected manufacturers performance specifications.
   ** Warning ** COIL:HEATING:WATERTOAIRHEATPUMP:EQUATIONFIT "TECHNIC-2-0 WAHP HEATING COIL"
   **   ~~~   ** ...used with COIL:COOLING:WATERTOAIRHEATPUMP:EQUATIONFIT "TECHNIC-2-0 WAHP COOLING COIL"
   **   ~~~   ** ...heating capacity is disproportionate (> 20% different) to total cooling capacity
   **   ~~~   ** ...heating capacity = 4000.000 W
   **   ~~~   ** ...cooling capacity = 302.095 W
   ** Warning ** COIL:COOLING:WATERTOAIRHEATPUMP:EQUATIONFIT "CORRIDOR-2-0 WAHP COOLING COIL"
   **   ~~~   ** SizeWaterToAirCoil: Rated Sensible Cooling Capacity > Rated Total Cooling Capacity
   **   ~~~   ** Both of these capacity inputs have been autosized.
   **   ~~~   ** Rated Sensible Cooling Capacity at Rated Conditions = 1410.76 W
   **   ~~~   ** Rated Total Cooling Capacity at Rated Conditions    = 795.49 W
   **   ~~~   ** See eio file for further details.
   **   ~~~   ** Check Total and Sensible Cooling Capacity coefficients in curves to ensure they are accurate.
   **   ~~~   ** Check Zone and System Sizing objects to verify sizing inputs.
   **   ~~~   ** Sizing statistics:
   **   ~~~   ** Rated entering Air Wet-Bulb Temperature = 19.000 C
   **   ~~~   ** Peak entering Air Wet-Bulb Temperature = 16.733 C
   **   ~~~   ** Entering Water Temperature used = 30.000 C
   **   ~~~   ** Design air and water flow rates = 1.0
   **   ~~~   ** Rated ratio of load-side air wet-bulb temperature to 283.15 C (Rated ratioTWB) = 1.031
   **   ~~~   ** Rated ratio of source-side inlet water temperature to 283.15 C (Rated ratioTS)  = 1.070
   **   ~~~   ** Peak ratio of load-side air wet-bulb temperature to 283.15 C (Peak ratioTWB) = 1.023
   **   ~~~   ** Peak ratio of source-side inlet water temperature to 283.15 C (Peak ratioTS)  = 1.084
   **   ~~~   ** Rated Total Cooling Capacity Modifier = 1.00000
   **   ~~~   ** Peak Design Total Cooling Capacity Modifier = 0.88647
   **   ~~~   ** Rated Sensible Cooling Capacity Modifier = 1.00000
   **   ~~~   ** Peak Design Sensible Cooling Capacity Modifier = 0.96570
   **   ~~~   ** ...Rated Total Cooling Capacity at Rated Conditions = Total Peak Design Load * Rated Total Cooling Capacity Modifier  / Peak Design Total Cooling Capacity Modifier
   **   ~~~   ** ...Rated Sensible Cooling Capacity at Rated Conditions = Peak Design Sensible Load * Rated Sensible Cooling Capacity Modifier  / Peak Design Sensible Cooling Capacity Modifier
   **   ~~~   ** Carefully review the Load Side Total, Sensible, and Latent heat transfer rates
   **   ~~~   ** ... to ensure they meet the expected manufacturers performance specifications.
   ** Warning ** COIL:HEATING:WATERTOAIRHEATPUMP:EQUATIONFIT "CORRIDOR-2-0 WAHP HEATING COIL"
   **   ~~~   ** ...used with COIL:COOLING:WATERTOAIRHEATPUMP:EQUATIONFIT "CORRIDOR-2-0 WAHP COOLING COIL"
   **   ~~~   ** ...heating capacity is disproportionate (> 20% different) to total cooling capacity
   **   ~~~   ** ...heating capacity = 4000.000 W
   **   ~~~   ** ...cooling capacity = 795.499 W
   ************* Testing Individual Branch Integrity
   ************* All Branches passed integrity testing
   ************* Testing Individual Supply Air Path Integrity
   ************* All Supply Air Paths passed integrity testing
   ************* Testing Individual Return Air Path Integrity
   ************* All Return Air Paths passed integrity testing
   ************* No node connection errors were found.
   ************* Beginning Simulation
   ** Warning ** GetDensityGlycol: Temperature is out of range (too low) for fluid [WATER] density **
   **   ~~~   ** ..Called From:NodeReportingCalc:MAINTOWER CNDW OUTLET,Temperature=[-31.18], supplied data range=[0.00,100.00]
   **   ~~~   **  Environment=RUNPERIODNOVEMBER, at Simulation time=11/01 00:00 - 00:10
   ** Warning ** GetSpecificHeatGlycol: Temperature is out of range (too low) for fluid [WATER] specific heat supplied values **
   **   ~~~   ** ..Called From:PlantLoopSolver::UpdateAnyLoopDemandAlterations,Temperature=[-30.73], supplied data range=[0.00,125.00]
   **   ~~~   **  Environment=RUNPERIODNOVEMBER, at Simulation time=11/01 01:40 - 01:50
   ************* Simulation Error Summary *************
   ** Warning ** The following Report Variables were requested but not generated -- check.rdd file
   **   ~~~   ** Either the IDF did not contain these elements, the variable name is misspelled,
   **   ~~~   ** or the requested variable is an advanced output which requires Output : Diagnostics, DisplayAdvancedReportVariables;
   ************* Key=*, VarName=BOILER ELECTRICITY ENERGY, Frequency=
   ************* Key=*, VarName=CHILLER ELECTRICITY ENERGY, Frequency=
   *************
   ************* ===== Recurring Error Summary =====
   ************* The following recurring error messages occurred.
   *************
   *************  ** Warning ** Actual air mass flow rate is smaller than 25% of water-to-air heat pump coil rated air flow rate.
   *************  **   ~~~   **   This error occurred 726216 total times;
   *************  **   ~~~   **   during Warmup 150657 times;
   *************  **   ~~~   **   during Sizing 0 times.
   *************  **   ~~~   **   Max=5.750947E-002  Min=1.069925E-005
   *************
   *************  ** Warning ** Plant loop falling below lower temperature limit, PlantLoop="ONLYWATERLOOP MIXED WATER LOOP"
   *************  **   ~~~   **   This error occurred 45902 total times;
   *************  **   ~~~   **   during Warmup 11342 times;
   *************  **   ~~~   **   during Sizing 0 times.
   *************  **   ~~~   **   Min=-36.744236
   *************
   *************  ** Warning ** GetDensityGlycol: Temperature out of range (too low) for fluid [WATER] density **
   *************  **   ~~~   **   This error occurred 4048882 total times;
   *************  **   ~~~   **   during Warmup 0 times;
   *************  **   ~~~   **   during Sizing 0 times.
   *************  **   ~~~   **   Max=-4.630717E-003 {C}  Min=-36.883194 {C}
   *************
   *************  ** Warning ** GetSpecificHeatGlycol: Temperature out of range (too low) for fluid [WATER] specific heat **
   *************  **   ~~~   **   This error occurred 430756 total times;
   *************  **   ~~~   **   during Warmup 0 times;
   *************  **   ~~~   **   during Sizing 0 times.
   *************  **   ~~~   **   Max=-4.630717E-003 {C}  Min=-36.883194 {C}
   *************
   *************
   ************* ===== Final Error Summary =====
   ************* The following error categories occurred.  Consider correcting or noting.
   ************* Nominally Unused Constructions
   ************* ..The nominally unused constructions warning is provided to alert you to potential conditions that can cause
   ************* ..extra time during simulation. Each construction is calculated by the algorithm indicated in the HeatBalanceAlgorithm
   ************* ..object. You may remove the constructions indicated (when you use the DisplayExtraWarnings option).
   *************
   ************* EnergyPlus Warmup Error Summary. During Warmup: 0 Warning; 0 Severe Errors.
   ************* EnergyPlus Sizing Error Summary. During Sizing: 40 Warning; 0 Severe Errors.
   ************* EnergyPlus Completed Successfully-- 5251847 Warning; 0 Severe Errors; Elapsed Time=00hr 01min 13.22sec
