Program Version,EnergyPlus, Version 22.2.0-c249759bad, YMD=2023.04.03 12:51,
   ** Warning ** Output:PreprocessorMessage="ExpandObjects" has the following Warning condition:
   **   ~~~   ** Cannot find Energy+.idd as specified in Energy+.ini.
   ** Warning ** Output:PreprocessorMessage="ExpandObjects" has the following Warning conditions:
   **   ~~~   ** Since the Energy+.IDD file cannot be read no range or choice checking was
   **   ~~~   ** performed.
   ************* Beginning Zone Sizing Calculations
   ** Warning ** Site:GroundTemperature:BuildingSurface: Some values fall outside the range of 15-25C.
   **   ~~~   ** These values may be inappropriate.  Please consult the Input Output Reference for more details.
   ** Warning ** ProcessScheduleInput: Schedule:Compact="GENERIC.ALWAYS1", Schedule Type Limits Name="ANYNUMBER" not found -- will not be validated
   ** Warning ** ProcessScheduleInput: Schedule:Compact="GENERIC.ALWAYS01", Schedule Type Limits Name="ANYNUMBER" not found -- will not be validated
   ** Warning ** ProcessScheduleInput: Schedule:Compact="OFFICE.COOLINGSETPOINT", Schedule Type Limits Name="ANYNUMBER" not found -- will not be validated
   ** Warning ** ProcessScheduleInput: Schedule:Compact="OFFICE.ELECTRICEQUIPMENT", Schedule Type Limits Name="ANYNUMBER" not found -- will not be validated
   ** Warning ** ProcessScheduleInput: Schedule:Compact="OFFICE.LIGHTS", Schedule Type Limits Name="ANYNUMBER" not found -- will not be validated
   ** Warning ** ProcessScheduleInput: Schedule:Compact="OFFICE.PEOPLE", Schedule Type Limits Name="ANYNUMBER" not found -- will not be validated
   ** Warning ** ProcessScheduleInput: Schedule:Compact="OFFICE.ACTIVITY", Schedule Type Limits Name="ANYNUMBER" not found -- will not be validated
   ** Warning ** ProcessScheduleInput: Schedule:Compact="STAIRS.COOLINGSETPOINT", Schedule Type Limits Name="ANYNUMBER" not found -- will not be validated
   ** Warning ** ProcessScheduleInput: Schedule:Compact="STAIRS.ELECTRICEQUIPMENT", Schedule Type Limits Name="ANYNUMBER" not found -- will not be validated
   ** Warning ** ProcessScheduleInput: Schedule:Compact="STAIRS.LIGHTS", Schedule Type Limits Name="ANYNUMBER" not found -- will not be validated
   ** Warning ** ProcessScheduleInput: Schedule:Compact="STAIRS.PEOPLE", Schedule Type Limits Name="ANYNUMBER" not found -- will not be validated
   ** Warning ** ProcessScheduleInput: Schedule:Compact="STAIRS.ACTIVITY", Schedule Type Limits Name="ANYNUMBER" not found -- will not be validated
   ** Warning ** ProcessScheduleInput: Schedule:Compact="TOILET.HEATINGSETPOINT", Schedule Type Limits Name="ANYNUMBER" not found -- will not be validated
   ** Warning ** ProcessScheduleInput: Schedule:Compact="TOILET.COOLINGSETPOINT", Schedule Type Limits Name="ANYNUMBER" not found -- will not be validated
   ** Warning ** ProcessScheduleInput: Schedule:Compact="TOILET.ELECTRICEQUIPMENT", Schedule Type Limits Name="ANYNUMBER" not found -- will not be validated
   ** Warning ** ProcessScheduleInput: Schedule:Compact="TOILET.LIGHTS", Schedule Type Limits Name="ANYNUMBER" not found -- will not be validated
   ** Warning ** ProcessScheduleInput: Schedule:Compact="TOILET.PEOPLE", Schedule Type Limits Name="ANYNUMBER" not found -- will not be validated
   ** Warning ** ProcessScheduleInput: Schedule:Compact="TOILET.ACTIVITY", Schedule Type Limits Name="ANYNUMBER" not found -- will not be validated
   ** Warning ** ProcessScheduleInput: Schedule:Compact="SERVICE.HEATINGSETPOINT", Schedule Type Limits Name="ANYNUMBER" not found -- will not be validated
   ** Warning ** ProcessScheduleInput: Schedule:Compact="SERVICE.COOLINGSETPOINT", Schedule Type Limits Name="ANYNUMBER" not found -- will not be validated
   ** Warning ** ProcessScheduleInput: Schedule:Compact="SERVICE.ELECTRICEQUIPMENT", Schedule Type Limits Name="ANYNUMBER" not found -- will not be validated
   ** Warning ** ProcessScheduleInput: Schedule:Compact="SERVICE.LIGHTS", Schedule Type Limits Name="ANYNUMBER" not found -- will not be validated
   ** Warning ** ProcessScheduleInput: Schedule:Compact="SERVICE.PEOPLE", Schedule Type Limits Name="ANYNUMBER" not found -- will not be validated
   ** Warning ** ProcessScheduleInput: Schedule:Compact="SERVICE.ACTIVITY", Schedule Type Limits Name="ANYNUMBER" not found -- will not be validated
   ** Warning ** ProcessScheduleInput: Schedule:Compact="CORRIDOR.COOLINGSETPOINT", Schedule Type Limits Name="ANYNUMBER" not found -- will not be validated
   ** Warning ** ProcessScheduleInput: Schedule:Compact="CORRIDOR.ELECTRICEQUIPMENT", Schedule Type Limits Name="ANYNUMBER" not found -- will not be validated
   ** Warning ** ProcessScheduleInput: Schedule:Compact="CORRIDOR.LIGHTS", Schedule Type Limits Name="ANYNUMBER" not found -- will not be validated
   ** Warning ** ProcessScheduleInput: Schedule:Compact="CORRIDOR.PEOPLE", Schedule Type Limits Name="ANYNUMBER" not found -- will not be validated
   ** Warning ** ProcessScheduleInput: Schedule:Compact="CORRIDOR.ACTIVITY", Schedule Type Limits Name="ANYNUMBER" not found -- will not be validated
   ** Warning ** ProcessScheduleInput: Schedule:Compact="TECHNIC.HEATINGSETPOINT", Schedule Type Limits Name="ANYNUMBER" not found -- will not be validated
   ** Warning ** ProcessScheduleInput: Schedule:Compact="TECHNIC.COOLINGSETPOINT", Schedule Type Limits Name="ANYNUMBER" not found -- will not be validated
   ** Warning ** ProcessScheduleInput: Schedule:Compact="TECHNIC.ELECTRICEQUIPMENT", Schedule Type Limits Name="ANYNUMBER" not found -- will not be validated
   ** Warning ** ProcessScheduleInput: Schedule:Compact="TECHNIC.LIGHTS", Schedule Type Limits Name="ANYNUMBER" not found -- will not be validated
   ** Warning ** ProcessScheduleInput: Schedule:Compact="TECHNIC.PEOPLE", Schedule Type Limits Name="ANYNUMBER" not found -- will not be validated
   ** Warning ** ProcessScheduleInput: Schedule:Compact="TECHNIC.ACTIVITY", Schedule Type Limits Name="ANYNUMBER" not found -- will not be validated
   ** Warning ** ProcessScheduleInput: Schedule:Compact="OFFICE.HEATINGSETPOINT", Schedule Type Limits Name="ANYNUMBER" not found -- will not be validated
   ** Warning ** ProcessScheduleInput: Schedule:Compact="CORRIDOR.HEATINGSETPOINT", Schedule Type Limits Name="ANYNUMBER" not found -- will not be validated
   ** Warning ** ProcessScheduleInput: Schedule:Compact="STAIRS.HEATINGSETPOINT", Schedule Type Limits Name="ANYNUMBER" not found -- will not be validated
   ** Warning ** CheckUsedConstructions: There are 4 nominally unused constructions in input.
   **   ~~~   ** Each Unused construction is shown.
   ************* Construction=WALLEXTERNAL
   ************* Construction=FLOORGROUND
   ************* Construction=ROOF
   ************* Construction=WINDOW
   ************* Beginning Plant Sizing Calculations
   ** Warning ** COIL:COOLING:WATERTOAIRHEATPUMP:EQUATIONFIT "OFFICE-0-0 WAHP COOLING COIL"
   **   ~~~   ** SizeWaterToAirCoil: Rated Sensible Cooling Capacity > Rated Total Cooling Capacity
   **   ~~~   ** Both of these capacity inputs have been autosized.
   **   ~~~   ** Rated Sensible Cooling Capacity at Rated Conditions = 2873.38 W
   **   ~~~   ** Rated Total Cooling Capacity at Rated Conditions    = 1327.07 W
   **   ~~~   ** See eio file for further details.
   **   ~~~   ** Check Total and Sensible Cooling Capacity coefficients in curves to ensure they are accurate.
   **   ~~~   ** Check Zone and System Sizing objects to verify sizing inputs.
   **   ~~~   ** Sizing statistics:
   **   ~~~   ** Rated entering Air Wet-Bulb Temperature = 19.000 C
   **   ~~~   ** Peak entering Air Wet-Bulb Temperature = 17.537 C
   **   ~~~   ** Entering Water Temperature used = 30.000 C
   **   ~~~   ** Design air and water flow rates = 1.0
   **   ~~~   ** Rated ratio of load-side air wet-bulb temperature to 283.15 C (Rated ratioTWB) = 1.031
   **   ~~~   ** Rated ratio of source-side inlet water temperature to 283.15 C (Rated ratioTS)  = 1.070
   **   ~~~   ** Peak ratio of load-side air wet-bulb temperature to 283.15 C (Peak ratioTWB) = 1.026
   **   ~~~   ** Peak ratio of source-side inlet water temperature to 283.15 C (Peak ratioTS)  = 1.084
   **   ~~~   ** Rated Total Cooling Capacity Modifier = 1.00000
   **   ~~~   ** Peak Design Total Cooling Capacity Modifier = 0.91797
   **   ~~~   ** Rated Sensible Cooling Capacity Modifier = 1.00000
   **   ~~~   ** Peak Design Sensible Cooling Capacity Modifier = 0.98598
   **   ~~~   ** ...Rated Total Cooling Capacity at Rated Conditions = Total Peak Design Load * Rated Total Cooling Capacity Modifier  / Peak Design Total Cooling Capacity Modifier
   **   ~~~   ** ...Rated Sensible Cooling Capacity at Rated Conditions = Peak Design Sensible Load * Rated Sensible Cooling Capacity Modifier  / Peak Design Sensible Cooling Capacity Modifier
   **   ~~~   ** Carefully review the Load Side Total, Sensible, and Latent heat transfer rates
   **   ~~~   ** ... to ensure they meet the expected manufacturers performance specifications.
   ** Warning ** COIL:HEATING:WATERTOAIRHEATPUMP:EQUATIONFIT "OFFICE-0-0 WAHP HEATING COIL"
   **   ~~~   ** ...used with COIL:COOLING:WATERTOAIRHEATPUMP:EQUATIONFIT "OFFICE-0-0 WAHP COOLING COIL"
   **   ~~~   ** ...heating capacity is disproportionate (> 20% different) to total cooling capacity
   **   ~~~   ** ...heating capacity = 4000.000 W
   **   ~~~   ** ...cooling capacity = 1327.075 W
   ** Warning ** COIL:COOLING:WATERTOAIRHEATPUMP:EQUATIONFIT "OFFICE-0-1 WAHP COOLING COIL"
   **   ~~~   ** SizeWaterToAirCoil: Rated Sensible Cooling Capacity > Rated Total Cooling Capacity
   **   ~~~   ** Both of these capacity inputs have been autosized.
   **   ~~~   ** Rated Sensible Cooling Capacity at Rated Conditions = 1827.37 W
   **   ~~~   ** Rated Total Cooling Capacity at Rated Conditions    = 1235.53 W
   **   ~~~   ** See eio file for further details.
   **   ~~~   ** Check Total and Sensible Cooling Capacity coefficients in curves to ensure they are accurate.
   **   ~~~   ** Check Zone and System Sizing objects to verify sizing inputs.
   **   ~~~   ** Sizing statistics:
   **   ~~~   ** Rated entering Air Wet-Bulb Temperature = 19.000 C
   **   ~~~   ** Peak entering Air Wet-Bulb Temperature = 18.017 C
   **   ~~~   ** Entering Water Temperature used = 30.000 C
   **   ~~~   ** Design air and water flow rates = 1.0
   **   ~~~   ** Rated ratio of load-side air wet-bulb temperature to 283.15 C (Rated ratioTWB) = 1.031
   **   ~~~   ** Rated ratio of source-side inlet water temperature to 283.15 C (Rated ratioTS)  = 1.070
   **   ~~~   ** Peak ratio of load-side air wet-bulb temperature to 283.15 C (Peak ratioTWB) = 1.028
   **   ~~~   ** Peak ratio of source-side inlet water temperature to 283.15 C (Peak ratioTS)  = 1.084
   **   ~~~   ** Rated Total Cooling Capacity Modifier = 1.00000
   **   ~~~   ** Peak Design Total Cooling Capacity Modifier = 0.93678
   **   ~~~   ** Rated Sensible Cooling Capacity Modifier = 1.00000
   **   ~~~   ** Peak Design Sensible Cooling Capacity Modifier = 0.99016
   **   ~~~   ** ...Rated Total Cooling Capacity at Rated Conditions = Total Peak Design Load * Rated Total Cooling Capacity Modifier  / Peak Design Total Cooling Capacity Modifier
   **   ~~~   ** ...Rated Sensible Cooling Capacity at Rated Conditions = Peak Design Sensible Load * Rated Sensible Cooling Capacity Modifier  / Peak Design Sensible Cooling Capacity Modifier
   **   ~~~   ** Carefully review the Load Side Total, Sensible, and Latent heat transfer rates
   **   ~~~   ** ... to ensure they meet the expected manufacturers performance specifications.
   ** Warning ** COIL:HEATING:WATERTOAIRHEATPUMP:EQUATIONFIT "OFFICE-0-1 WAHP HEATING COIL"
   **   ~~~   ** ...used with COIL:COOLING:WATERTOAIRHEATPUMP:EQUATIONFIT "OFFICE-0-1 WAHP COOLING COIL"
   **   ~~~   ** ...heating capacity is disproportionate (> 20% different) to total cooling capacity
   **   ~~~   ** ...heating capacity = 4000.000 W
   **   ~~~   ** ...cooling capacity = 1235.530 W
   ** Warning ** COIL:COOLING:WATERTOAIRHEATPUMP:EQUATIONFIT "OFFICE-0-2 WAHP COOLING COIL"
   **   ~~~   ** SizeWaterToAirCoil: Rated Sensible Cooling Capacity > Rated Total Cooling Capacity
   **   ~~~   ** Both of these capacity inputs have been autosized.
   **   ~~~   ** Rated Sensible Cooling Capacity at Rated Conditions = 2187.54 W
   **   ~~~   ** Rated Total Cooling Capacity at Rated Conditions    = 907.10 W
   **   ~~~   ** See eio file for further details.
   **   ~~~   ** Check Total and Sensible Cooling Capacity coefficients in curves to ensure they are accurate.
   **   ~~~   ** Check Zone and System Sizing objects to verify sizing inputs.
   **   ~~~   ** Sizing statistics:
   **   ~~~   ** Rated entering Air Wet-Bulb Temperature = 19.000 C
   **   ~~~   ** Peak entering Air Wet-Bulb Temperature = 17.331 C
   **   ~~~   ** Entering Water Temperature used = 30.000 C
   **   ~~~   ** Design air and water flow rates = 1.0
   **   ~~~   ** Rated ratio of load-side air wet-bulb temperature to 283.15 C (Rated ratioTWB) = 1.031
   **   ~~~   ** Rated ratio of source-side inlet water temperature to 283.15 C (Rated ratioTS)  = 1.070
   **   ~~~   ** Peak ratio of load-side air wet-bulb temperature to 283.15 C (Peak ratioTWB) = 1.025
   **   ~~~   ** Peak ratio of source-side inlet water temperature to 283.15 C (Peak ratioTS)  = 1.084
   **   ~~~   ** Rated Total Cooling Capacity Modifier = 1.00000
   **   ~~~   ** Peak Design Total Cooling Capacity Modifier = 0.90989
   **   ~~~   ** Rated Sensible Cooling Capacity Modifier = 1.00000
   **   ~~~   ** Peak Design Sensible Cooling Capacity Modifier = 0.90389
   **   ~~~   ** ...Rated Total Cooling Capacity at Rated Conditions = Total Peak Design Load * Rated Total Cooling Capacity Modifier  / Peak Design Total Cooling Capacity Modifier
   **   ~~~   ** ...Rated Sensible Cooling Capacity at Rated Conditions = Peak Design Sensible Load * Rated Sensible Cooling Capacity Modifier  / Peak Design Sensible Cooling Capacity Modifier
   **   ~~~   ** Carefully review the Load Side Total, Sensible, and Latent heat transfer rates
   **   ~~~   ** ... to ensure they meet the expected manufacturers performance specifications.
   ** Warning ** COIL:HEATING:WATERTOAIRHEATPUMP:EQUATIONFIT "OFFICE-0-2 WAHP HEATING COIL"
   **   ~~~   ** ...used with COIL:COOLING:WATERTOAIRHEATPUMP:EQUATIONFIT "OFFICE-0-2 WAHP COOLING COIL"
   **   ~~~   ** ...heating capacity is disproportionate (> 20% different) to total cooling capacity
   **   ~~~   ** ...heating capacity = 4000.000 W
   **   ~~~   ** ...cooling capacity = 907.104 W
   ** Warning ** COIL:COOLING:WATERTOAIRHEATPUMP:EQUATIONFIT "OFFICE-0-3 WAHP COOLING COIL"
   **   ~~~   ** SizeWaterToAirCoil: Rated Sensible Cooling Capacity > Rated Total Cooling Capacity
   **   ~~~   ** Both of these capacity inputs have been autosized.
   **   ~~~   ** Rated Sensible Cooling Capacity at Rated Conditions = 2345.40 W
   **   ~~~   ** Rated Total Cooling Capacity at Rated Conditions    = 919.35 W
   **   ~~~   ** See eio file for further details.
   **   ~~~   ** Check Total and Sensible Cooling Capacity coefficients in curves to ensure they are accurate.
   **   ~~~   ** Check Zone and System Sizing objects to verify sizing inputs.
   **   ~~~   ** Sizing statistics:
   **   ~~~   ** Rated entering Air Wet-Bulb Temperature = 19.000 C
   **   ~~~   ** Peak entering Air Wet-Bulb Temperature = 17.337 C
   **   ~~~   ** Entering Water Temperature used = 30.000 C
   **   ~~~   ** Design air and water flow rates = 1.0
   **   ~~~   ** Rated ratio of load-side air wet-bulb temperature to 283.15 C (Rated ratioTWB) = 1.031
   **   ~~~   ** Rated ratio of source-side inlet water temperature to 283.15 C (Rated ratioTS)  = 1.070
   **   ~~~   ** Peak ratio of load-side air wet-bulb temperature to 283.15 C (Peak ratioTWB) = 1.025
   **   ~~~   ** Peak ratio of source-side inlet water temperature to 283.15 C (Peak ratioTS)  = 1.084
   **   ~~~   ** Rated Total Cooling Capacity Modifier = 1.00000
   **   ~~~   ** Peak Design Total Cooling Capacity Modifier = 0.91014
   **   ~~~   ** Rated Sensible Cooling Capacity Modifier = 1.00000
   **   ~~~   ** Peak Design Sensible Cooling Capacity Modifier = 0.93659
   **   ~~~   ** ...Rated Total Cooling Capacity at Rated Conditions = Total Peak Design Load * Rated Total Cooling Capacity Modifier  / Peak Design Total Cooling Capacity Modifier
   **   ~~~   ** ...Rated Sensible Cooling Capacity at Rated Conditions = Peak Design Sensible Load * Rated Sensible Cooling Capacity Modifier  / Peak Design Sensible Cooling Capacity Modifier
   **   ~~~   ** Carefully review the Load Side Total, Sensible, and Latent heat transfer rates
   **   ~~~   ** ... to ensure they meet the expected manufacturers performance specifications.
   ** Warning ** COIL:HEATING:WATERTOAIRHEATPUMP:EQUATIONFIT "OFFICE-0-3 WAHP HEATING COIL"
   **   ~~~   ** ...used with COIL:COOLING:WATERTOAIRHEATPUMP:EQUATIONFIT "OFFICE-0-3 WAHP COOLING COIL"
   **   ~~~   ** ...heating capacity is disproportionate (> 20% different) to total cooling capacity
   **   ~~~   ** ...heating capacity = 4000.000 W
   **   ~~~   ** ...cooling capacity = 919.356 W
   ** Warning ** COIL:HEATING:WATERTOAIRHEATPUMP:EQUATIONFIT "TOILET-0-0 WAHP HEATING COIL"
   **   ~~~   ** ...used with COIL:COOLING:WATERTOAIRHEATPUMP:EQUATIONFIT "TOILET-0-0 WAHP COOLING COIL"
   **   ~~~   ** ...heating capacity is disproportionate (> 20% different) to total cooling capacity
   **   ~~~   ** ...heating capacity = 4000.000 W
   **   ~~~   ** ...cooling capacity = 222.286 W
   ** Warning ** COIL:HEATING:WATERTOAIRHEATPUMP:EQUATIONFIT "STAIRS-0-0 WAHP HEATING COIL"
   **   ~~~   ** ...used with COIL:COOLING:WATERTOAIRHEATPUMP:EQUATIONFIT "STAIRS-0-0 WAHP COOLING COIL"
   **   ~~~   ** ...heating capacity is disproportionate (> 20% different) to total cooling capacity
   **   ~~~   ** ...heating capacity = 4000.000 W
   **   ~~~   ** ...cooling capacity = 415.066 W
   ** Warning ** COIL:COOLING:WATERTOAIRHEATPUMP:EQUATIONFIT "TECHNIC-0-0 WAHP COOLING COIL"
   **   ~~~   ** SizeWaterToAirCoil: Rated Sensible Cooling Capacity > Rated Total Cooling Capacity
   **   ~~~   ** Both of these capacity inputs have been autosized.
   **   ~~~   ** Rated Sensible Cooling Capacity at Rated Conditions = 620.88 W
   **   ~~~   ** Rated Total Cooling Capacity at Rated Conditions    = 372.02 W
   **   ~~~   ** See eio file for further details.
   **   ~~~   ** Check Total and Sensible Cooling Capacity coefficients in curves to ensure they are accurate.
   **   ~~~   ** Check Zone and System Sizing objects to verify sizing inputs.
   **   ~~~   ** Sizing statistics:
   **   ~~~   ** Rated entering Air Wet-Bulb Temperature = 19.000 C
   **   ~~~   ** Peak entering Air Wet-Bulb Temperature = 16.349 C
   **   ~~~   ** Entering Water Temperature used = 30.000 C
   **   ~~~   ** Design air and water flow rates = 1.0
   **   ~~~   ** Rated ratio of load-side air wet-bulb temperature to 283.15 C (Rated ratioTWB) = 1.031
   **   ~~~   ** Rated ratio of source-side inlet water temperature to 283.15 C (Rated ratioTS)  = 1.070
   **   ~~~   ** Peak ratio of load-side air wet-bulb temperature to 283.15 C (Peak ratioTWB) = 1.022
   **   ~~~   ** Peak ratio of source-side inlet water temperature to 283.15 C (Peak ratioTS)  = 1.084
   **   ~~~   ** Rated Total Cooling Capacity Modifier = 1.00000
   **   ~~~   ** Peak Design Total Cooling Capacity Modifier = 0.87145
   **   ~~~   ** Rated Sensible Cooling Capacity Modifier = 1.00000
   **   ~~~   ** Peak Design Sensible Cooling Capacity Modifier = 0.96615
   **   ~~~   ** ...Rated Total Cooling Capacity at Rated Conditions = Total Peak Design Load * Rated Total Cooling Capacity Modifier  / Peak Design Total Cooling Capacity Modifier
   **   ~~~   ** ...Rated Sensible Cooling Capacity at Rated Conditions = Peak Design Sensible Load * Rated Sensible Cooling Capacity Modifier  / Peak Design Sensible Cooling Capacity Modifier
   **   ~~~   ** Carefully review the Load Side Total, Sensible, and Latent heat transfer rates
   **   ~~~   ** ... to ensure they meet the expected manufacturers performance specifications.
   ** Warning ** COIL:HEATING:WATERTOAIRHEATPUMP:EQUATIONFIT "TECHNIC-0-0 WAHP HEATING COIL"
   **   ~~~   ** ...used with COIL:COOLING:WATERTOAIRHEATPUMP:EQUATIONFIT "TECHNIC-0-0 WAHP COOLING COIL"
   **   ~~~   ** ...heating capacity is disproportionate (> 20% different) to total cooling capacity
   **   ~~~   ** ...heating capacity = 4000.000 W
   **   ~~~   ** ...cooling capacity = 372.020 W
   ** Warning ** COIL:COOLING:WATERTOAIRHEATPUMP:EQUATIONFIT "CORRIDOR-0-0 WAHP COOLING COIL"
   **   ~~~   ** SizeWaterToAirCoil: Rated Sensible Cooling Capacity > Rated Total Cooling Capacity
   **   ~~~   ** Both of these capacity inputs have been autosized.
   **   ~~~   ** Rated Sensible Cooling Capacity at Rated Conditions = 1353.84 W
   **   ~~~   ** Rated Total Cooling Capacity at Rated Conditions    = 1105.59 W
   **   ~~~   ** See eio file for further details.
   **   ~~~   ** Check Total and Sensible Cooling Capacity coefficients in curves to ensure they are accurate.
   **   ~~~   ** Check Zone and System Sizing objects to verify sizing inputs.
   **   ~~~   ** Sizing statistics:
   **   ~~~   ** Rated entering Air Wet-Bulb Temperature = 19.000 C
   **   ~~~   ** Peak entering Air Wet-Bulb Temperature = 17.213 C
   **   ~~~   ** Entering Water Temperature used = 30.000 C
   **   ~~~   ** Design air and water flow rates = 1.0
   **   ~~~   ** Rated ratio of load-side air wet-bulb temperature to 283.15 C (Rated ratioTWB) = 1.031
   **   ~~~   ** Rated ratio of source-side inlet water temperature to 283.15 C (Rated ratioTS)  = 1.070
   **   ~~~   ** Peak ratio of load-side air wet-bulb temperature to 283.15 C (Peak ratioTWB) = 1.025
   **   ~~~   ** Peak ratio of source-side inlet water temperature to 283.15 C (Peak ratioTS)  = 1.084
   **   ~~~   ** Rated Total Cooling Capacity Modifier = 1.00000
   **   ~~~   ** Peak Design Total Cooling Capacity Modifier = 0.90527
   **   ~~~   ** Rated Sensible Cooling Capacity Modifier = 1.00000
   **   ~~~   ** Peak Design Sensible Cooling Capacity Modifier = 0.98359
   **   ~~~   ** ...Rated Total Cooling Capacity at Rated Conditions = Total Peak Design Load * Rated Total Cooling Capacity Modifier  / Peak Design Total Cooling Capacity Modifier
   **   ~~~   ** ...Rated Sensible Cooling Capacity at Rated Conditions = Peak Design Sensible Load * Rated Sensible Cooling Capacity Modifier  / Peak Design Sensible Cooling Capacity Modifier
   **   ~~~   ** Carefully review the Load Side Total, Sensible, and Latent heat transfer rates
   **   ~~~   ** ... to ensure they meet the expected manufacturers performance specifications.
   ** Warning ** COIL:HEATING:WATERTOAIRHEATPUMP:EQUATIONFIT "CORRIDOR-0-0 WAHP HEATING COIL"
   **   ~~~   ** ...used with COIL:COOLING:WATERTOAIRHEATPUMP:EQUATIONFIT "CORRIDOR-0-0 WAHP COOLING COIL"
   **   ~~~   ** ...heating capacity is disproportionate (> 20% different) to total cooling capacity
   **   ~~~   ** ...heating capacity = 4000.000 W
   **   ~~~   ** ...cooling capacity = 1105.593 W
   ** Warning ** COIL:COOLING:WATERTOAIRHEATPUMP:EQUATIONFIT "OFFICE-1-0 WAHP COOLING COIL"
   **   ~~~   ** SizeWaterToAirCoil: Rated Sensible Cooling Capacity > Rated Total Cooling Capacity
   **   ~~~   ** Both of these capacity inputs have been autosized.
   **   ~~~   ** Rated Sensible Cooling Capacity at Rated Conditions = 2459.32 W
   **   ~~~   ** Rated Total Cooling Capacity at Rated Conditions    = 898.47 W
   **   ~~~   ** See eio file for further details.
   **   ~~~   ** Check Total and Sensible Cooling Capacity coefficients in curves to ensure they are accurate.
   **   ~~~   ** Check Zone and System Sizing objects to verify sizing inputs.
   **   ~~~   ** Sizing statistics:
   **   ~~~   ** Rated entering Air Wet-Bulb Temperature = 19.000 C
   **   ~~~   ** Peak entering Air Wet-Bulb Temperature = 17.344 C
   **   ~~~   ** Entering Water Temperature used = 30.000 C
   **   ~~~   ** Design air and water flow rates = 1.0
   **   ~~~   ** Rated ratio of load-side air wet-bulb temperature to 283.15 C (Rated ratioTWB) = 1.031
   **   ~~~   ** Rated ratio of source-side inlet water temperature to 283.15 C (Rated ratioTS)  = 1.070
   **   ~~~   ** Peak ratio of load-side air wet-bulb temperature to 283.15 C (Peak ratioTWB) = 1.025
   **   ~~~   ** Peak ratio of source-side inlet water temperature to 283.15 C (Peak ratioTS)  = 1.084
   **   ~~~   ** Rated Total Cooling Capacity Modifier = 1.00000
   **   ~~~   ** Peak Design Total Cooling Capacity Modifier = 0.91043
   **   ~~~   ** Rated Sensible Cooling Capacity Modifier = 1.00000
   **   ~~~   ** Peak Design Sensible Cooling Capacity Modifier = 0.98953
   **   ~~~   ** ...Rated Total Cooling Capacity at Rated Conditions = Total Peak Design Load * Rated Total Cooling Capacity Modifier  / Peak Design Total Cooling Capacity Modifier
   **   ~~~   ** ...Rated Sensible Cooling Capacity at Rated Conditions = Peak Design Sensible Load * Rated Sensible Cooling Capacity Modifier  / Peak Design Sensible Cooling Capacity Modifier
   **   ~~~   ** Carefully review the Load Side Total, Sensible, and Latent heat transfer rates
   **   ~~~   ** ... to ensure they meet the expected manufacturers performance specifications.
   ** Warning ** COIL:HEATING:WATERTOAIRHEATPUMP:EQUATIONFIT "OFFICE-1-0 WAHP HEATING COIL"
   **   ~~~   ** ...used with COIL:COOLING:WATERTOAIRHEATPUMP:EQUATIONFIT "OFFICE-1-0 WAHP COOLING COIL"
   **   ~~~   ** ...heating capacity is disproportionate (> 20% different) to total cooling capacity
   **   ~~~   ** ...heating capacity = 4000.000 W
   **   ~~~   ** ...cooling capacity = 898.473 W
   ** Warning ** COIL:COOLING:WATERTOAIRHEATPUMP:EQUATIONFIT "OFFICE-1-1 WAHP COOLING COIL"
   **   ~~~   ** SizeWaterToAirCoil: Rated Sensible Cooling Capacity > Rated Total Cooling Capacity
   **   ~~~   ** Both of these capacity inputs have been autosized.
   **   ~~~   ** Rated Sensible Cooling Capacity at Rated Conditions = 2207.24 W
   **   ~~~   ** Rated Total Cooling Capacity at Rated Conditions    = 834.67 W
   **   ~~~   ** See eio file for further details.
   **   ~~~   ** Check Total and Sensible Cooling Capacity coefficients in curves to ensure they are accurate.
   **   ~~~   ** Check Zone and System Sizing objects to verify sizing inputs.
   **   ~~~   ** Sizing statistics:
   **   ~~~   ** Rated entering Air Wet-Bulb Temperature = 19.000 C
   **   ~~~   ** Peak entering Air Wet-Bulb Temperature = 17.592 C
   **   ~~~   ** Entering Water Temperature used = 30.000 C
   **   ~~~   ** Design air and water flow rates = 1.0
   **   ~~~   ** Rated ratio of load-side air wet-bulb temperature to 283.15 C (Rated ratioTWB) = 1.031
   **   ~~~   ** Rated ratio of source-side inlet water temperature to 283.15 C (Rated ratioTS)  = 1.070
   **   ~~~   ** Peak ratio of load-side air wet-bulb temperature to 283.15 C (Peak ratioTWB) = 1.026
   **   ~~~   ** Peak ratio of source-side inlet water temperature to 283.15 C (Peak ratioTS)  = 1.084
   **   ~~~   ** Rated Total Cooling Capacity Modifier = 1.00000
   **   ~~~   ** Peak Design Total Cooling Capacity Modifier = 0.92014
   **   ~~~   ** Rated Sensible Cooling Capacity Modifier = 1.00000
   **   ~~~   ** Peak Design Sensible Cooling Capacity Modifier = 0.99118
   **   ~~~   ** ...Rated Total Cooling Capacity at Rated Conditions = Total Peak Design Load * Rated Total Cooling Capacity Modifier  / Peak Design Total Cooling Capacity Modifier
   **   ~~~   ** ...Rated Sensible Cooling Capacity at Rated Conditions = Peak Design Sensible Load * Rated Sensible Cooling Capacity Modifier  / Peak Design Sensible Cooling Capacity Modifier
   **   ~~~   ** Carefully review the Load Side Total, Sensible, and Latent heat transfer rates
   **   ~~~   ** ... to ensure they meet the expected manufacturers performance specifications.
   ** Warning ** COIL:HEATING:WATERTOAIRHEATPUMP:EQUATIONFIT "OFFICE-1-1 WAHP HEATING COIL"
   **   ~~~   ** ...used with COIL:COOLING:WATERTOAIRHEATPUMP:EQUATIONFIT "OFFICE-1-1 WAHP COOLING COIL"
   **   ~~~   ** ...heating capacity is disproportionate (> 20% different) to total cooling capacity
   **   ~~~   ** ...heating capacity = 4000.000 W
   **   ~~~   ** ...cooling capacity = 834.670 W
   ** Warning ** COIL:COOLING:WATERTOAIRHEATPUMP:EQUATIONFIT "OFFICE-1-2 WAHP COOLING COIL"
   **   ~~~   ** SizeWaterToAirCoil: Rated Sensible Cooling Capacity > Rated Total Cooling Capacity
   **   ~~~   ** Both of these capacity inputs have been autosized.
   **   ~~~   ** Rated Sensible Cooling Capacity at Rated Conditions = 2740.14 W
   **   ~~~   ** Rated Total Cooling Capacity at Rated Conditions    = 726.97 W
   **   ~~~   ** See eio file for further details.
   **   ~~~   ** Check Total and Sensible Cooling Capacity coefficients in curves to ensure they are accurate.
   **   ~~~   ** Check Zone and System Sizing objects to verify sizing inputs.
   **   ~~~   ** Sizing statistics:
   **   ~~~   ** Rated entering Air Wet-Bulb Temperature = 19.000 C
   **   ~~~   ** Peak entering Air Wet-Bulb Temperature = 17.066 C
   **   ~~~   ** Entering Water Temperature used = 30.000 C
   **   ~~~   ** Design air and water flow rates = 1.0
   **   ~~~   ** Rated ratio of load-side air wet-bulb temperature to 283.15 C (Rated ratioTWB) = 1.031
   **   ~~~   ** Rated ratio of source-side inlet water temperature to 283.15 C (Rated ratioTS)  = 1.070
   **   ~~~   ** Peak ratio of load-side air wet-bulb temperature to 283.15 C (Peak ratioTWB) = 1.024
   **   ~~~   ** Peak ratio of source-side inlet water temperature to 283.15 C (Peak ratioTS)  = 1.084
   **   ~~~   ** Rated Total Cooling Capacity Modifier = 1.00000
   **   ~~~   ** Peak Design Total Cooling Capacity Modifier = 0.89954
   **   ~~~   ** Rated Sensible Cooling Capacity Modifier = 1.00000
   **   ~~~   ** Peak Design Sensible Cooling Capacity Modifier = 0.91979
   **   ~~~   ** ...Rated Total Cooling Capacity at Rated Conditions = Total Peak Design Load * Rated Total Cooling Capacity Modifier  / Peak Design Total Cooling Capacity Modifier
   **   ~~~   ** ...Rated Sensible Cooling Capacity at Rated Conditions = Peak Design Sensible Load * Rated Sensible Cooling Capacity Modifier  / Peak Design Sensible Cooling Capacity Modifier
   **   ~~~   ** Carefully review the Load Side Total, Sensible, and Latent heat transfer rates
   **   ~~~   ** ... to ensure they meet the expected manufacturers performance specifications.
   ** Warning ** COIL:HEATING:WATERTOAIRHEATPUMP:EQUATIONFIT "OFFICE-1-2 WAHP HEATING COIL"
   **   ~~~   ** ...used with COIL:COOLING:WATERTOAIRHEATPUMP:EQUATIONFIT "OFFICE-1-2 WAHP COOLING COIL"
   **   ~~~   ** ...heating capacity is disproportionate (> 20% different) to total cooling capacity
   **   ~~~   ** ...heating capacity = 4000.000 W
   **   ~~~   ** ...cooling capacity = 726.971 W
   ** Warning ** COIL:COOLING:WATERTOAIRHEATPUMP:EQUATIONFIT "OFFICE-1-3 WAHP COOLING COIL"
   **   ~~~   ** SizeWaterToAirCoil: Rated Sensible Cooling Capacity > Rated Total Cooling Capacity
   **   ~~~   ** Both of these capacity inputs have been autosized.
   **   ~~~   ** Rated Sensible Cooling Capacity at Rated Conditions = 2871.61 W
   **   ~~~   ** Rated Total Cooling Capacity at Rated Conditions    = 831.27 W
   **   ~~~   ** See eio file for further details.
   **   ~~~   ** Check Total and Sensible Cooling Capacity coefficients in curves to ensure they are accurate.
   **   ~~~   ** Check Zone and System Sizing objects to verify sizing inputs.
   **   ~~~   ** Sizing statistics:
   **   ~~~   ** Rated entering Air Wet-Bulb Temperature = 19.000 C
   **   ~~~   ** Peak entering Air Wet-Bulb Temperature = 17.043 C
   **   ~~~   ** Entering Water Temperature used = 30.000 C
   **   ~~~   ** Design air and water flow rates = 1.0
   **   ~~~   ** Rated ratio of load-side air wet-bulb temperature to 283.15 C (Rated ratioTWB) = 1.031
   **   ~~~   ** Rated ratio of source-side inlet water temperature to 283.15 C (Rated ratioTS)  = 1.070
   **   ~~~   ** Peak ratio of load-side air wet-bulb temperature to 283.15 C (Peak ratioTWB) = 1.024
   **   ~~~   ** Peak ratio of source-side inlet water temperature to 283.15 C (Peak ratioTS)  = 1.084
   **   ~~~   ** Rated Total Cooling Capacity Modifier = 1.00000
   **   ~~~   ** Peak Design Total Cooling Capacity Modifier = 0.89864
   **   ~~~   ** Rated Sensible Cooling Capacity Modifier = 1.00000
   **   ~~~   ** Peak Design Sensible Cooling Capacity Modifier = 0.94501
   **   ~~~   ** ...Rated Total Cooling Capacity at Rated Conditions = Total Peak Design Load * Rated Total Cooling Capacity Modifier  / Peak Design Total Cooling Capacity Modifier
   **   ~~~   ** ...Rated Sensible Cooling Capacity at Rated Conditions = Peak Design Sensible Load * Rated Sensible Cooling Capacity Modifier  / Peak Design Sensible Cooling Capacity Modifier
   **   ~~~   ** Carefully review the Load Side Total, Sensible, and Latent heat transfer rates
   **   ~~~   ** ... to ensure they meet the expected manufacturers performance specifications.
   ** Warning ** COIL:HEATING:WATERTOAIRHEATPUMP:EQUATIONFIT "OFFICE-1-3 WAHP HEATING COIL"
   **   ~~~   ** ...used with COIL:COOLING:WATERTOAIRHEATPUMP:EQUATIONFIT "OFFICE-1-3 WAHP COOLING COIL"
   **   ~~~   ** ...heating capacity is disproportionate (> 20% different) to total cooling capacity
   **   ~~~   ** ...heating capacity = 4000.000 W
   **   ~~~   ** ...cooling capacity = 831.278 W
   ** Warning ** COIL:COOLING:WATERTOAIRHEATPUMP:EQUATIONFIT "TOILET-1-0 WAHP COOLING COIL"
   **   ~~~   ** SizeWaterToAirCoil: Rated Sensible Cooling Capacity > Rated Total Cooling Capacity
   **   ~~~   ** Both of these capacity inputs have been autosized.
   **   ~~~   ** Rated Sensible Cooling Capacity at Rated Conditions = 285.09 W
   **   ~~~   ** Rated Total Cooling Capacity at Rated Conditions    = 19.03 W
   **   ~~~   ** See eio file for further details.
   **   ~~~   ** Check Total and Sensible Cooling Capacity coefficients in curves to ensure they are accurate.
   **   ~~~   ** Check Zone and System Sizing objects to verify sizing inputs.
   **   ~~~   ** Sizing statistics:
   **   ~~~   ** Rated entering Air Wet-Bulb Temperature = 19.000 C
   **   ~~~   ** Peak entering Air Wet-Bulb Temperature = 17.394 C
   **   ~~~   ** Entering Water Temperature used = 30.000 C
   **   ~~~   ** Design air and water flow rates = 1.0
   **   ~~~   ** Rated ratio of load-side air wet-bulb temperature to 283.15 C (Rated ratioTWB) = 1.031
   **   ~~~   ** Rated ratio of source-side inlet water temperature to 283.15 C (Rated ratioTS)  = 1.070
   **   ~~~   ** Peak ratio of load-side air wet-bulb temperature to 283.15 C (Peak ratioTWB) = 1.026
   **   ~~~   ** Peak ratio of source-side inlet water temperature to 283.15 C (Peak ratioTS)  = 1.084
   **   ~~~   ** Rated Total Cooling Capacity Modifier = 1.00000
   **   ~~~   ** Peak Design Total Cooling Capacity Modifier = 0.91238
   **   ~~~   ** Rated Sensible Cooling Capacity Modifier = 1.00000
   **   ~~~   ** Peak Design Sensible Cooling Capacity Modifier = 0.99825
   **   ~~~   ** ...Rated Total Cooling Capacity at Rated Conditions = Total Peak Design Load * Rated Total Cooling Capacity Modifier  / Peak Design Total Cooling Capacity Modifier
   **   ~~~   ** ...Rated Sensible Cooling Capacity at Rated Conditions = Peak Design Sensible Load * Rated Sensible Cooling Capacity Modifier  / Peak Design Sensible Cooling Capacity Modifier
   **   ~~~   ** Carefully review the Load Side Total, Sensible, and Latent heat transfer rates
   **   ~~~   ** ... to ensure they meet the expected manufacturers performance specifications.
   ** Warning ** COIL:HEATING:WATERTOAIRHEATPUMP:EQUATIONFIT "TOILET-1-0 WAHP HEATING COIL"
   **   ~~~   ** ...used with COIL:COOLING:WATERTOAIRHEATPUMP:EQUATIONFIT "TOILET-1-0 WAHP COOLING COIL"
   **   ~~~   ** ...heating capacity is disproportionate (> 20% different) to total cooling capacity
   **   ~~~   ** ...heating capacity = 4000.000 W
   **   ~~~   ** ...cooling capacity = 19.035 W
   ** Warning ** COIL:COOLING:WATERTOAIRHEATPUMP:EQUATIONFIT "STAIRS-1-0 WAHP COOLING COIL"
   **   ~~~   ** SizeWaterToAirCoil: Rated Sensible Cooling Capacity > Rated Total Cooling Capacity
   **   ~~~   ** Both of these capacity inputs have been autosized.
   **   ~~~   ** Rated Sensible Cooling Capacity at Rated Conditions = 602.67 W
   **   ~~~   ** Rated Total Cooling Capacity at Rated Conditions    = 314.25 W
   **   ~~~   ** See eio file for further details.
   **   ~~~   ** Check Total and Sensible Cooling Capacity coefficients in curves to ensure they are accurate.
   **   ~~~   ** Check Zone and System Sizing objects to verify sizing inputs.
   **   ~~~   ** Sizing statistics:
   **   ~~~   ** Rated entering Air Wet-Bulb Temperature = 19.000 C
   **   ~~~   ** Peak entering Air Wet-Bulb Temperature = 17.413 C
   **   ~~~   ** Entering Water Temperature used = 30.000 C
   **   ~~~   ** Design air and water flow rates = 1.0
   **   ~~~   ** Rated ratio of load-side air wet-bulb temperature to 283.15 C (Rated ratioTWB) = 1.031
   **   ~~~   ** Rated ratio of source-side inlet water temperature to 283.15 C (Rated ratioTS)  = 1.070
   **   ~~~   ** Peak ratio of load-side air wet-bulb temperature to 283.15 C (Peak ratioTWB) = 1.026
   **   ~~~   ** Peak ratio of source-side inlet water temperature to 283.15 C (Peak ratioTS)  = 1.084
   **   ~~~   ** Rated Total Cooling Capacity Modifier = 1.00000
   **   ~~~   ** Peak Design Total Cooling Capacity Modifier = 0.91311
   **   ~~~   ** Rated Sensible Cooling Capacity Modifier = 1.00000
   **   ~~~   ** Peak Design Sensible Cooling Capacity Modifier = 0.98520
   **   ~~~   ** ...Rated Total Cooling Capacity at Rated Conditions = Total Peak Design Load * Rated Total Cooling Capacity Modifier  / Peak Design Total Cooling Capacity Modifier
   **   ~~~   ** ...Rated Sensible Cooling Capacity at Rated Conditions = Peak Design Sensible Load * Rated Sensible Cooling Capacity Modifier  / Peak Design Sensible Cooling Capacity Modifier
   **   ~~~   ** Carefully review the Load Side Total, Sensible, and Latent heat transfer rates
   **   ~~~   ** ... to ensure they meet the expected manufacturers performance specifications.
   ** Warning ** COIL:HEATING:WATERTOAIRHEATPUMP:EQUATIONFIT "STAIRS-1-0 WAHP HEATING COIL"
   **   ~~~   ** ...used with COIL:COOLING:WATERTOAIRHEATPUMP:EQUATIONFIT "STAIRS-1-0 WAHP COOLING COIL"
   **   ~~~   ** ...heating capacity is disproportionate (> 20% different) to total cooling capacity
   **   ~~~   ** ...heating capacity = 4000.000 W
   **   ~~~   ** ...cooling capacity = 314.254 W
   ** Warning ** COIL:COOLING:WATERTOAIRHEATPUMP:EQUATIONFIT "SERVICE-1-0 WAHP COOLING COIL"
   **   ~~~   ** SizeWaterToAirCoil: Rated Sensible Cooling Capacity > Rated Total Cooling Capacity
   **   ~~~   ** Both of these capacity inputs have been autosized.
   **   ~~~   ** Rated Sensible Cooling Capacity at Rated Conditions = 692.68 W
   **   ~~~   ** Rated Total Cooling Capacity at Rated Conditions    = 341.19 W
   **   ~~~   ** See eio file for further details.
   **   ~~~   ** Check Total and Sensible Cooling Capacity coefficients in curves to ensure they are accurate.
   **   ~~~   ** Check Zone and System Sizing objects to verify sizing inputs.
   **   ~~~   ** Sizing statistics:
   **   ~~~   ** Rated entering Air Wet-Bulb Temperature = 19.000 C
   **   ~~~   ** Peak entering Air Wet-Bulb Temperature = 16.231 C
   **   ~~~   ** Entering Water Temperature used = 30.000 C
   **   ~~~   ** Design air and water flow rates = 1.0
   **   ~~~   ** Rated ratio of load-side air wet-bulb temperature to 283.15 C (Rated ratioTWB) = 1.031
   **   ~~~   ** Rated ratio of source-side inlet water temperature to 283.15 C (Rated ratioTS)  = 1.070
   **   ~~~   ** Peak ratio of load-side air wet-bulb temperature to 283.15 C (Peak ratioTWB) = 1.022
   **   ~~~   ** Peak ratio of source-side inlet water temperature to 283.15 C (Peak ratioTS)  = 1.084
   **   ~~~   ** Rated Total Cooling Capacity Modifier = 1.00000
   **   ~~~   ** Peak Design Total Cooling Capacity Modifier = 0.86682
   **   ~~~   ** Rated Sensible Cooling Capacity Modifier = 1.00000
   **   ~~~   ** Peak Design Sensible Cooling Capacity Modifier = 0.97109
   **   ~~~   ** ...Rated Total Cooling Capacity at Rated Conditions = Total Peak Design Load * Rated Total Cooling Capacity Modifier  / Peak Design Total Cooling Capacity Modifier
   **   ~~~   ** ...Rated Sensible Cooling Capacity at Rated Conditions = Peak Design Sensible Load * Rated Sensible Cooling Capacity Modifier  / Peak Design Sensible Cooling Capacity Modifier
   **   ~~~   ** Carefully review the Load Side Total, Sensible, and Latent heat transfer rates
   **   ~~~   ** ... to ensure they meet the expected manufacturers performance specifications.
   ** Warning ** COIL:HEATING:WATERTOAIRHEATPUMP:EQUATIONFIT "SERVICE-1-0 WAHP HEATING COIL"
   **   ~~~   ** ...used with COIL:COOLING:WATERTOAIRHEATPUMP:EQUATIONFIT "SERVICE-1-0 WAHP COOLING COIL"
   **   ~~~   ** ...heating capacity is disproportionate (> 20% different) to total cooling capacity
   **   ~~~   ** ...heating capacity = 4000.000 W
   **   ~~~   ** ...cooling capacity = 341.190 W
   ** Warning ** COIL:COOLING:WATERTOAIRHEATPUMP:EQUATIONFIT "CORRIDOR-1-0 WAHP COOLING COIL"
   **   ~~~   ** SizeWaterToAirCoil: Rated Sensible Cooling Capacity > Rated Total Cooling Capacity
   **   ~~~   ** Both of these capacity inputs have been autosized.
   **   ~~~   ** Rated Sensible Cooling Capacity at Rated Conditions = 1749.41 W
   **   ~~~   ** Rated Total Cooling Capacity at Rated Conditions    = 383.99 W
   **   ~~~   ** See eio file for further details.
   **   ~~~   ** Check Total and Sensible Cooling Capacity coefficients in curves to ensure they are accurate.
   **   ~~~   ** Check Zone and System Sizing objects to verify sizing inputs.
   **   ~~~   ** Sizing statistics:
   **   ~~~   ** Rated entering Air Wet-Bulb Temperature = 19.000 C
   **   ~~~   ** Peak entering Air Wet-Bulb Temperature = 16.777 C
   **   ~~~   ** Entering Water Temperature used = 30.000 C
   **   ~~~   ** Design air and water flow rates = 1.0
   **   ~~~   ** Rated ratio of load-side air wet-bulb temperature to 283.15 C (Rated ratioTWB) = 1.031
   **   ~~~   ** Rated ratio of source-side inlet water temperature to 283.15 C (Rated ratioTS)  = 1.070
   **   ~~~   ** Peak ratio of load-side air wet-bulb temperature to 283.15 C (Peak ratioTWB) = 1.023
   **   ~~~   ** Peak ratio of source-side inlet water temperature to 283.15 C (Peak ratioTS)  = 1.084
   **   ~~~   ** Rated Total Cooling Capacity Modifier = 1.00000
   **   ~~~   ** Peak Design Total Cooling Capacity Modifier = 0.88820
   **   ~~~   ** Rated Sensible Cooling Capacity Modifier = 1.00000
   **   ~~~   ** Peak Design Sensible Cooling Capacity Modifier = 0.98254
   **   ~~~   ** ...Rated Total Cooling Capacity at Rated Conditions = Total Peak Design Load * Rated Total Cooling Capacity Modifier  / Peak Design Total Cooling Capacity Modifier
   **   ~~~   ** ...Rated Sensible Cooling Capacity at Rated Conditions = Peak Design Sensible Load * Rated Sensible Cooling Capacity Modifier  / Peak Design Sensible Cooling Capacity Modifier
   **   ~~~   ** Carefully review the Load Side Total, Sensible, and Latent heat transfer rates
   **   ~~~   ** ... to ensure they meet the expected manufacturers performance specifications.
   ** Warning ** COIL:HEATING:WATERTOAIRHEATPUMP:EQUATIONFIT "CORRIDOR-1-0 WAHP HEATING COIL"
   **   ~~~   ** ...used with COIL:COOLING:WATERTOAIRHEATPUMP:EQUATIONFIT "CORRIDOR-1-0 WAHP COOLING COIL"
   **   ~~~   ** ...heating capacity is disproportionate (> 20% different) to total cooling capacity
   **   ~~~   ** ...heating capacity = 4000.000 W
   **   ~~~   ** ...cooling capacity = 383.993 W
   ** Warning ** COIL:COOLING:WATERTOAIRHEATPUMP:EQUATIONFIT "OFFICE-2-0 WAHP COOLING COIL"
   **   ~~~   ** SizeWaterToAirCoil: Rated Sensible Cooling Capacity > Rated Total Cooling Capacity
   **   ~~~   ** Both of these capacity inputs have been autosized.
   **   ~~~   ** Rated Sensible Cooling Capacity at Rated Conditions = 2312.59 W
   **   ~~~   ** Rated Total Cooling Capacity at Rated Conditions    = 1138.43 W
   **   ~~~   ** See eio file for further details.
   **   ~~~   ** Check Total and Sensible Cooling Capacity coefficients in curves to ensure they are accurate.
   **   ~~~   ** Check Zone and System Sizing objects to verify sizing inputs.
   **   ~~~   ** Sizing statistics:
   **   ~~~   ** Rated entering Air Wet-Bulb Temperature = 19.000 C
   **   ~~~   ** Peak entering Air Wet-Bulb Temperature = 17.522 C
   **   ~~~   ** Entering Water Temperature used = 30.000 C
   **   ~~~   ** Design air and water flow rates = 1.0
   **   ~~~   ** Rated ratio of load-side air wet-bulb temperature to 283.15 C (Rated ratioTWB) = 1.031
   **   ~~~   ** Rated ratio of source-side inlet water temperature to 283.15 C (Rated ratioTS)  = 1.070
   **   ~~~   ** Peak ratio of load-side air wet-bulb temperature to 283.15 C (Peak ratioTWB) = 1.026
   **   ~~~   ** Peak ratio of source-side inlet water temperature to 283.15 C (Peak ratioTS)  = 1.084
   **   ~~~   ** Rated Total Cooling Capacity Modifier = 1.00000
   **   ~~~   ** Peak Design Total Cooling Capacity Modifier = 0.91739
   **   ~~~   ** Rated Sensible Cooling Capacity Modifier = 1.00000
   **   ~~~   ** Peak Design Sensible Cooling Capacity Modifier = 0.98652
   **   ~~~   ** ...Rated Total Cooling Capacity at Rated Conditions = Total Peak Design Load * Rated Total Cooling Capacity Modifier  / Peak Design Total Cooling Capacity Modifier
   **   ~~~   ** ...Rated Sensible Cooling Capacity at Rated Conditions = Peak Design Sensible Load * Rated Sensible Cooling Capacity Modifier  / Peak Design Sensible Cooling Capacity Modifier
   **   ~~~   ** Carefully review the Load Side Total, Sensible, and Latent heat transfer rates
   **   ~~~   ** ... to ensure they meet the expected manufacturers performance specifications.
   ** Warning ** COIL:HEATING:WATERTOAIRHEATPUMP:EQUATIONFIT "OFFICE-2-0 WAHP HEATING COIL"
   **   ~~~   ** ...used with COIL:COOLING:WATERTOAIRHEATPUMP:EQUATIONFIT "OFFICE-2-0 WAHP COOLING COIL"
   **   ~~~   ** ...heating capacity is disproportionate (> 20% different) to total cooling capacity
   **   ~~~   ** ...heating capacity = 4000.000 W
   **   ~~~   ** ...cooling capacity = 1138.434 W
   ** Warning ** COIL:COOLING:WATERTOAIRHEATPUMP:EQUATIONFIT "OFFICE-2-1 WAHP COOLING COIL"
   **   ~~~   ** SizeWaterToAirCoil: Rated Sensible Cooling Capacity > Rated Total Cooling Capacity
   **   ~~~   ** Both of these capacity inputs have been autosized.
   **   ~~~   ** Rated Sensible Cooling Capacity at Rated Conditions = 1437.85 W
   **   ~~~   ** Rated Total Cooling Capacity at Rated Conditions    = 798.67 W
   **   ~~~   ** See eio file for further details.
   **   ~~~   ** Check Total and Sensible Cooling Capacity coefficients in curves to ensure they are accurate.
   **   ~~~   ** Check Zone and System Sizing objects to verify sizing inputs.
   **   ~~~   ** Sizing statistics:
   **   ~~~   ** Rated entering Air Wet-Bulb Temperature = 19.000 C
   **   ~~~   ** Peak entering Air Wet-Bulb Temperature = 17.774 C
   **   ~~~   ** Entering Water Temperature used = 30.000 C
   **   ~~~   ** Design air and water flow rates = 1.0
   **   ~~~   ** Rated ratio of load-side air wet-bulb temperature to 283.15 C (Rated ratioTWB) = 1.031
   **   ~~~   ** Rated ratio of source-side inlet water temperature to 283.15 C (Rated ratioTS)  = 1.070
   **   ~~~   ** Peak ratio of load-side air wet-bulb temperature to 283.15 C (Peak ratioTWB) = 1.027
   **   ~~~   ** Peak ratio of source-side inlet water temperature to 283.15 C (Peak ratioTS)  = 1.084
   **   ~~~   ** Rated Total Cooling Capacity Modifier = 1.00000
   **   ~~~   ** Peak Design Total Cooling Capacity Modifier = 0.92724
   **   ~~~   ** Rated Sensible Cooling Capacity Modifier = 1.00000
   **   ~~~   ** Peak Design Sensible Cooling Capacity Modifier = 0.98902
   **   ~~~   ** ...Rated Total Cooling Capacity at Rated Conditions = Total Peak Design Load * Rated Total Cooling Capacity Modifier  / Peak Design Total Cooling Capacity Modifier
   **   ~~~   ** ...Rated Sensible Cooling Capacity at Rated Conditions = Peak Design Sensible Load * Rated Sensible Cooling Capacity Modifier  / Peak Design Sensible Cooling Capacity Modifier
   **   ~~~   ** Carefully review the Load Side Total, Sensible, and Latent heat transfer rates
   **   ~~~   ** ... to ensure they meet the expected manufacturers performance specifications.
   ** Warning ** COIL:HEATING:WATERTOAIRHEATPUMP:EQUATIONFIT "OFFICE-2-1 WAHP HEATING COIL"
   **   ~~~   ** ...used with COIL:COOLING:WATERTOAIRHEATPUMP:EQUATIONFIT "OFFICE-2-1 WAHP COOLING COIL"
   **   ~~~   ** ...heating capacity is disproportionate (> 20% different) to total cooling capacity
   **   ~~~   ** ...heating capacity = 4000.000 W
   **   ~~~   ** ...cooling capacity = 798.679 W
   ** Warning ** COIL:COOLING:WATERTOAIRHEATPUMP:EQUATIONFIT "OFFICE-2-4 WAHP COOLING COIL"
   **   ~~~   ** SizeWaterToAirCoil: Rated Sensible Cooling Capacity > Rated Total Cooling Capacity
   **   ~~~   ** Both of these capacity inputs have been autosized.
   **   ~~~   ** Rated Sensible Cooling Capacity at Rated Conditions = 1493.43 W
   **   ~~~   ** Rated Total Cooling Capacity at Rated Conditions    = 1207.25 W
   **   ~~~   ** See eio file for further details.
   **   ~~~   ** Check Total and Sensible Cooling Capacity coefficients in curves to ensure they are accurate.
   **   ~~~   ** Check Zone and System Sizing objects to verify sizing inputs.
   **   ~~~   ** Sizing statistics:
   **   ~~~   ** Rated entering Air Wet-Bulb Temperature = 19.000 C
   **   ~~~   ** Peak entering Air Wet-Bulb Temperature = 17.927 C
   **   ~~~   ** Entering Water Temperature used = 30.000 C
   **   ~~~   ** Design air and water flow rates = 1.0
   **   ~~~   ** Rated ratio of load-side air wet-bulb temperature to 283.15 C (Rated ratioTWB) = 1.031
   **   ~~~   ** Rated ratio of source-side inlet water temperature to 283.15 C (Rated ratioTS)  = 1.070
   **   ~~~   ** Peak ratio of load-side air wet-bulb temperature to 283.15 C (Peak ratioTWB) = 1.027
   **   ~~~   ** Peak ratio of source-side inlet water temperature to 283.15 C (Peak ratioTS)  = 1.084
   **   ~~~   ** Rated Total Cooling Capacity Modifier = 1.00000
   **   ~~~   ** Peak Design Total Cooling Capacity Modifier = 0.93325
   **   ~~~   ** Rated Sensible Cooling Capacity Modifier = 1.00000
   **   ~~~   ** Peak Design Sensible Cooling Capacity Modifier = 0.98547
   **   ~~~   ** ...Rated Total Cooling Capacity at Rated Conditions = Total Peak Design Load * Rated Total Cooling Capacity Modifier  / Peak Design Total Cooling Capacity Modifier
   **   ~~~   ** ...Rated Sensible Cooling Capacity at Rated Conditions = Peak Design Sensible Load * Rated Sensible Cooling Capacity Modifier  / Peak Design Sensible Cooling Capacity Modifier
   **   ~~~   ** Carefully review the Load Side Total, Sensible, and Latent heat transfer rates
   **   ~~~   ** ... to ensure they meet the expected manufacturers performance specifications.
   ** Warning ** COIL:HEATING:WATERTOAIRHEATPUMP:EQUATIONFIT "OFFICE-2-4 WAHP HEATING COIL"
   **   ~~~   ** ...used with COIL:COOLING:WATERTOAIRHEATPUMP:EQUATIONFIT "OFFICE-2-4 WAHP COOLING COIL"
   **   ~~~   ** ...heating capacity is disproportionate (> 20% different) to total cooling capacity
   **   ~~~   ** ...heating capacity = 4000.000 W
   **   ~~~   ** ...cooling capacity = 1207.256 W
   ** Warning ** COIL:COOLING:WATERTOAIRHEATPUMP:EQUATIONFIT "OFFICE-2-2 WAHP COOLING COIL"
   **   ~~~   ** SizeWaterToAirCoil: Rated Sensible Cooling Capacity > Rated Total Cooling Capacity
   **   ~~~   ** Both of these capacity inputs have been autosized.
   **   ~~~   ** Rated Sensible Cooling Capacity at Rated Conditions = 1800.80 W
   **   ~~~   ** Rated Total Cooling Capacity at Rated Conditions    = 621.95 W
   **   ~~~   ** See eio file for further details.
   **   ~~~   ** Check Total and Sensible Cooling Capacity coefficients in curves to ensure they are accurate.
   **   ~~~   ** Check Zone and System Sizing objects to verify sizing inputs.
   **   ~~~   ** Sizing statistics:
   **   ~~~   ** Rated entering Air Wet-Bulb Temperature = 19.000 C
   **   ~~~   ** Peak entering Air Wet-Bulb Temperature = 17.160 C
   **   ~~~   ** Entering Water Temperature used = 30.000 C
   **   ~~~   ** Design air and water flow rates = 1.0
   **   ~~~   ** Rated ratio of load-side air wet-bulb temperature to 283.15 C (Rated ratioTWB) = 1.031
   **   ~~~   ** Rated ratio of source-side inlet water temperature to 283.15 C (Rated ratioTS)  = 1.070
   **   ~~~   ** Peak ratio of load-side air wet-bulb temperature to 283.15 C (Peak ratioTWB) = 1.025
   **   ~~~   ** Peak ratio of source-side inlet water temperature to 283.15 C (Peak ratioTS)  = 1.084
   **   ~~~   ** Rated Total Cooling Capacity Modifier = 1.00000
   **   ~~~   ** Peak Design Total Cooling Capacity Modifier = 0.90323
   **   ~~~   ** Rated Sensible Cooling Capacity Modifier = 1.00000
   **   ~~~   ** Peak Design Sensible Cooling Capacity Modifier = 0.91462
   **   ~~~   ** ...Rated Total Cooling Capacity at Rated Conditions = Total Peak Design Load * Rated Total Cooling Capacity Modifier  / Peak Design Total Cooling Capacity Modifier
   **   ~~~   ** ...Rated Sensible Cooling Capacity at Rated Conditions = Peak Design Sensible Load * Rated Sensible Cooling Capacity Modifier  / Peak Design Sensible Cooling Capacity Modifier
   **   ~~~   ** Carefully review the Load Side Total, Sensible, and Latent heat transfer rates
   **   ~~~   ** ... to ensure they meet the expected manufacturers performance specifications.
   ** Warning ** COIL:HEATING:WATERTOAIRHEATPUMP:EQUATIONFIT "OFFICE-2-2 WAHP HEATING COIL"
   **   ~~~   ** ...used with COIL:COOLING:WATERTOAIRHEATPUMP:EQUATIONFIT "OFFICE-2-2 WAHP COOLING COIL"
   **   ~~~   ** ...heating capacity is disproportionate (> 20% different) to total cooling capacity
   **   ~~~   ** ...heating capacity = 4000.000 W
   **   ~~~   ** ...cooling capacity = 621.950 W
   ** Warning ** COIL:COOLING:WATERTOAIRHEATPUMP:EQUATIONFIT "OFFICE-2-3 WAHP COOLING COIL"
   **   ~~~   ** SizeWaterToAirCoil: Rated Sensible Cooling Capacity > Rated Total Cooling Capacity
   **   ~~~   ** Both of these capacity inputs have been autosized.
   **   ~~~   ** Rated Sensible Cooling Capacity at Rated Conditions = 2617.12 W
   **   ~~~   ** Rated Total Cooling Capacity at Rated Conditions    = 949.91 W
   **   ~~~   ** See eio file for further details.
   **   ~~~   ** Check Total and Sensible Cooling Capacity coefficients in curves to ensure they are accurate.
   **   ~~~   ** Check Zone and System Sizing objects to verify sizing inputs.
   **   ~~~   ** Sizing statistics:
   **   ~~~   ** Rated entering Air Wet-Bulb Temperature = 19.000 C
   **   ~~~   ** Peak entering Air Wet-Bulb Temperature = 17.099 C
   **   ~~~   ** Entering Water Temperature used = 30.000 C
   **   ~~~   ** Design air and water flow rates = 1.0
   **   ~~~   ** Rated ratio of load-side air wet-bulb temperature to 283.15 C (Rated ratioTWB) = 1.031
   **   ~~~   ** Rated ratio of source-side inlet water temperature to 283.15 C (Rated ratioTS)  = 1.070
   **   ~~~   ** Peak ratio of load-side air wet-bulb temperature to 283.15 C (Peak ratioTWB) = 1.025
   **   ~~~   ** Peak ratio of source-side inlet water temperature to 283.15 C (Peak ratioTS)  = 1.084
   **   ~~~   ** Rated Total Cooling Capacity Modifier = 1.00000
   **   ~~~   ** Peak Design Total Cooling Capacity Modifier = 0.90083
   **   ~~~   ** Rated Sensible Cooling Capacity Modifier = 1.00000
   **   ~~~   ** Peak Design Sensible Cooling Capacity Modifier = 0.92083
   **   ~~~   ** ...Rated Total Cooling Capacity at Rated Conditions = Total Peak Design Load * Rated Total Cooling Capacity Modifier  / Peak Design Total Cooling Capacity Modifier
   **   ~~~   ** ...Rated Sensible Cooling Capacity at Rated Conditions = Peak Design Sensible Load * Rated Sensible Cooling Capacity Modifier  / Peak Design Sensible Cooling Capacity Modifier
   **   ~~~   ** Carefully review the Load Side Total, Sensible, and Latent heat transfer rates
   **   ~~~   ** ... to ensure they meet the expected manufacturers performance specifications.
   ** Warning ** COIL:HEATING:WATERTOAIRHEATPUMP:EQUATIONFIT "OFFICE-2-3 WAHP HEATING COIL"
   **   ~~~   ** ...used with COIL:COOLING:WATERTOAIRHEATPUMP:EQUATIONFIT "OFFICE-2-3 WAHP COOLING COIL"
   **   ~~~   ** ...heating capacity is disproportionate (> 20% different) to total cooling capacity
   **   ~~~   ** ...heating capacity = 4000.000 W
   **   ~~~   ** ...cooling capacity = 949.910 W
   ** Warning ** COIL:COOLING:WATERTOAIRHEATPUMP:EQUATIONFIT "TOILET-2-0 WAHP COOLING COIL"
   **   ~~~   ** SizeWaterToAirCoil: Rated Sensible Cooling Capacity > Rated Total Cooling Capacity
   **   ~~~   ** Both of these capacity inputs have been autosized.
   **   ~~~   ** Rated Sensible Cooling Capacity at Rated Conditions = 273.36 W
   **   ~~~   ** Rated Total Cooling Capacity at Rated Conditions    = 240.08 W
   **   ~~~   ** See eio file for further details.
   **   ~~~   ** Check Total and Sensible Cooling Capacity coefficients in curves to ensure they are accurate.
   **   ~~~   ** Check Zone and System Sizing objects to verify sizing inputs.
   **   ~~~   ** Sizing statistics:
   **   ~~~   ** Rated entering Air Wet-Bulb Temperature = 19.000 C
   **   ~~~   ** Peak entering Air Wet-Bulb Temperature = 17.669 C
   **   ~~~   ** Entering Water Temperature used = 30.000 C
   **   ~~~   ** Design air and water flow rates = 1.0
   **   ~~~   ** Rated ratio of load-side air wet-bulb temperature to 283.15 C (Rated ratioTWB) = 1.031
   **   ~~~   ** Rated ratio of source-side inlet water temperature to 283.15 C (Rated ratioTS)  = 1.070
   **   ~~~   ** Peak ratio of load-side air wet-bulb temperature to 283.15 C (Peak ratioTWB) = 1.027
   **   ~~~   ** Peak ratio of source-side inlet water temperature to 283.15 C (Peak ratioTS)  = 1.084
   **   ~~~   ** Rated Total Cooling Capacity Modifier = 1.00000
   **   ~~~   ** Peak Design Total Cooling Capacity Modifier = 0.92314
   **   ~~~   ** Rated Sensible Cooling Capacity Modifier = 1.00000
   **   ~~~   ** Peak Design Sensible Cooling Capacity Modifier = 0.99093
   **   ~~~   ** ...Rated Total Cooling Capacity at Rated Conditions = Total Peak Design Load * Rated Total Cooling Capacity Modifier  / Peak Design Total Cooling Capacity Modifier
   **   ~~~   ** ...Rated Sensible Cooling Capacity at Rated Conditions = Peak Design Sensible Load * Rated Sensible Cooling Capacity Modifier  / Peak Design Sensible Cooling Capacity Modifier
   **   ~~~   ** Carefully review the Load Side Total, Sensible, and Latent heat transfer rates
   **   ~~~   ** ... to ensure they meet the expected manufacturers performance specifications.
   ** Warning ** COIL:HEATING:WATERTOAIRHEATPUMP:EQUATIONFIT "TOILET-2-0 WAHP HEATING COIL"
   **   ~~~   ** ...used with COIL:COOLING:WATERTOAIRHEATPUMP:EQUATIONFIT "TOILET-2-0 WAHP COOLING COIL"
   **   ~~~   ** ...heating capacity is disproportionate (> 20% different) to total cooling capacity
   **   ~~~   ** ...heating capacity = 4000.000 W
   **   ~~~   ** ...cooling capacity = 240.086 W
   ** Warning ** COIL:HEATING:WATERTOAIRHEATPUMP:EQUATIONFIT "STAIRS-2-0 WAHP HEATING COIL"
   **   ~~~   ** ...used with COIL:COOLING:WATERTOAIRHEATPUMP:EQUATIONFIT "STAIRS-2-0 WAHP COOLING COIL"
   **   ~~~   ** ...heating capacity is disproportionate (> 20% different) to total cooling capacity
   **   ~~~   ** ...heating capacity = 4000.000 W
   **   ~~~   ** ...cooling capacity = 637.049 W
   ** Warning ** COIL:COOLING:WATERTOAIRHEATPUMP:EQUATIONFIT "TECHNIC-2-0 WAHP COOLING COIL"
   **   ~~~   ** SizeWaterToAirCoil: Rated Sensible Cooling Capacity > Rated Total Cooling Capacity
   **   ~~~   ** Both of these capacity inputs have been autosized.
   **   ~~~   ** Rated Sensible Cooling Capacity at Rated Conditions = 380.10 W
   **   ~~~   ** Rated Total Cooling Capacity at Rated Conditions    = 292.03 W
   **   ~~~   ** See eio file for further details.
   **   ~~~   ** Check Total and Sensible Cooling Capacity coefficients in curves to ensure they are accurate.
   **   ~~~   ** Check Zone and System Sizing objects to verify sizing inputs.
   **   ~~~   ** Sizing statistics:
   **   ~~~   ** Rated entering Air Wet-Bulb Temperature = 19.000 C
   **   ~~~   ** Peak entering Air Wet-Bulb Temperature = 16.634 C
   **   ~~~   ** Entering Water Temperature used = 30.000 C
   **   ~~~   ** Design air and water flow rates = 1.0
   **   ~~~   ** Rated ratio of load-side air wet-bulb temperature to 283.15 C (Rated ratioTWB) = 1.031
   **   ~~~   ** Rated ratio of source-side inlet water temperature to 283.15 C (Rated ratioTS)  = 1.070
   **   ~~~   ** Peak ratio of load-side air wet-bulb temperature to 283.15 C (Peak ratioTWB) = 1.023
   **   ~~~   ** Peak ratio of source-side inlet water temperature to 283.15 C (Peak ratioTS)  = 1.084
   **   ~~~   ** Rated Total Cooling Capacity Modifier = 1.00000
   **   ~~~   ** Peak Design Total Cooling Capacity Modifier = 0.88263
   **   ~~~   ** Rated Sensible Cooling Capacity Modifier = 1.00000
   **   ~~~   ** Peak Design Sensible Cooling Capacity Modifier = 0.95195
   **   ~~~   ** ...Rated Total Cooling Capacity at Rated Conditions = Total Peak Design Load * Rated Total Cooling Capacity Modifier  / Peak Design Total Cooling Capacity Modifier
   **   ~~~   ** ...Rated Sensible Cooling Capacity at Rated Conditions = Peak Design Sensible Load * Rated Sensible Cooling Capacity Modifier  / Peak Design Sensible Cooling Capacity Modifier
   **   ~~~   ** Carefully review the Load Side Total, Sensible, and Latent heat transfer rates
   **   ~~~   ** ... to ensure they meet the expected manufacturers performance specifications.
   ** Warning ** COIL:HEATING:WATERTOAIRHEATPUMP:EQUATIONFIT "TECHNIC-2-0 WAHP HEATING COIL"
   **   ~~~   ** ...used with COIL:COOLING:WATERTOAIRHEATPUMP:EQUATIONFIT "TECHNIC-2-0 WAHP COOLING COIL"
   **   ~~~   ** ...heating capacity is disproportionate (> 20% different) to total cooling capacity
   **   ~~~   ** ...heating capacity = 4000.000 W
   **   ~~~   ** ...cooling capacity = 292.033 W
   ** Warning ** COIL:COOLING:WATERTOAIRHEATPUMP:EQUATIONFIT "CORRIDOR-2-0 WAHP COOLING COIL"
   **   ~~~   ** SizeWaterToAirCoil: Rated Sensible Cooling Capacity > Rated Total Cooling Capacity
   **   ~~~   ** Both of these capacity inputs have been autosized.
   **   ~~~   ** Rated Sensible Cooling Capacity at Rated Conditions = 1413.32 W
   **   ~~~   ** Rated Total Cooling Capacity at Rated Conditions    = 880.98 W
   **   ~~~   ** See eio file for further details.
   **   ~~~   ** Check Total and Sensible Cooling Capacity coefficients in curves to ensure they are accurate.
   **   ~~~   ** Check Zone and System Sizing objects to verify sizing inputs.
   **   ~~~   ** Sizing statistics:
   **   ~~~   ** Rated entering Air Wet-Bulb Temperature = 19.000 C
   **   ~~~   ** Peak entering Air Wet-Bulb Temperature = 16.715 C
   **   ~~~   ** Entering Water Temperature used = 30.000 C
   **   ~~~   ** Design air and water flow rates = 1.0
   **   ~~~   ** Rated ratio of load-side air wet-bulb temperature to 283.15 C (Rated ratioTWB) = 1.031
   **   ~~~   ** Rated ratio of source-side inlet water temperature to 283.15 C (Rated ratioTS)  = 1.070
   **   ~~~   ** Peak ratio of load-side air wet-bulb temperature to 283.15 C (Peak ratioTWB) = 1.023
   **   ~~~   ** Peak ratio of source-side inlet water temperature to 283.15 C (Peak ratioTS)  = 1.084
   **   ~~~   ** Rated Total Cooling Capacity Modifier = 1.00000
   **   ~~~   ** Peak Design Total Cooling Capacity Modifier = 0.88580
   **   ~~~   ** Rated Sensible Cooling Capacity Modifier = 1.00000
   **   ~~~   ** Peak Design Sensible Cooling Capacity Modifier = 0.96637
   **   ~~~   ** ...Rated Total Cooling Capacity at Rated Conditions = Total Peak Design Load * Rated Total Cooling Capacity Modifier  / Peak Design Total Cooling Capacity Modifier
   **   ~~~   ** ...Rated Sensible Cooling Capacity at Rated Conditions = Peak Design Sensible Load * Rated Sensible Cooling Capacity Modifier  / Peak Design Sensible Cooling Capacity Modifier
   **   ~~~   ** Carefully review the Load Side Total, Sensible, and Latent heat transfer rates
   **   ~~~   ** ... to ensure they meet the expected manufacturers performance specifications.
   ** Warning ** COIL:HEATING:WATERTOAIRHEATPUMP:EQUATIONFIT "CORRIDOR-2-0 WAHP HEATING COIL"
   **   ~~~   ** ...used with COIL:COOLING:WATERTOAIRHEATPUMP:EQUATIONFIT "CORRIDOR-2-0 WAHP COOLING COIL"
   **   ~~~   ** ...heating capacity is disproportionate (> 20% different) to total cooling capacity
   **   ~~~   ** ...heating capacity = 4000.000 W
   **   ~~~   ** ...cooling capacity = 880.982 W
   ************* Testing Individual Branch Integrity
   ************* All Branches passed integrity testing
   ************* Testing Individual Supply Air Path Integrity
   ************* All Supply Air Paths passed integrity testing
   ************* Testing Individual Return Air Path Integrity
   ************* All Return Air Paths passed integrity testing
   ************* No node connection errors were found.
   ************* Beginning Simulation
   ** Warning ** GetDensityGlycol: Temperature is out of range (too low) for fluid [WATER] density **
   **   ~~~   ** ..Called From:NodeReportingCalc:MAINTOWER CNDW OUTLET,Temperature=[-31.72], supplied data range=[0.00,100.00]
   **   ~~~   **  Environment=RUNPERIODNOVEMBER, at Simulation time=11/01 00:00 - 00:10
   ** Warning ** GetSpecificHeatGlycol: Temperature is out of range (too low) for fluid [WATER] specific heat supplied values **
   **   ~~~   ** ..Called From:PlantLoopSolver::UpdateAnyLoopDemandAlterations,Temperature=[-32.01], supplied data range=[0.00,125.00]
   **   ~~~   **  Environment=RUNPERIODNOVEMBER, at Simulation time=11/01 07:00 - 07:10
   ************* Simulation Error Summary *************
   ** Warning ** The following Report Variables were requested but not generated -- check.rdd file
   **   ~~~   ** Either the IDF did not contain these elements, the variable name is misspelled,
   **   ~~~   ** or the requested variable is an advanced output which requires Output : Diagnostics, DisplayAdvancedReportVariables;
   ************* Key=*, VarName=BOILER ELECTRICITY ENERGY, Frequency=
   ************* Key=*, VarName=CHILLER ELECTRICITY ENERGY, Frequency=
   *************
   ************* ===== Recurring Error Summary =====
   ************* The following recurring error messages occurred.
   *************
   *************  ** Warning ** Actual air mass flow rate is smaller than 25% of water-to-air heat pump coil rated air flow rate.
   *************  **   ~~~   **   This error occurred 617280 total times;
   *************  **   ~~~   **   during Warmup 127896 times;
   *************  **   ~~~   **   during Sizing 0 times.
   *************  **   ~~~   **   Max=5.569660E-002  Min=1.258108E-005
   *************
   *************  ** Warning ** Plant loop falling below lower temperature limit, PlantLoop="ONLYWATERLOOP MIXED WATER LOOP"
   *************  **   ~~~   **   This error occurred 46155 total times;
   *************  **   ~~~   **   during Warmup 11595 times;
   *************  **   ~~~   **   during Sizing 0 times.
   *************  **   ~~~   **   Min=-37.268851
   *************
   *************  ** Warning ** GetDensityGlycol: Temperature out of range (too low) for fluid [WATER] density **
   *************  **   ~~~   **   This error occurred 4033534 total times;
   *************  **   ~~~   **   during Warmup 0 times;
   *************  **   ~~~   **   during Sizing 0 times.
   *************  **   ~~~   **   Max=-8.882364E-002 {C}  Min=-37.415479 {C}
   *************
   *************  ** Warning ** GetSpecificHeatGlycol: Temperature out of range (too low) for fluid [WATER] specific heat **
   *************  **   ~~~   **   This error occurred 406465 total times;
   *************  **   ~~~   **   during Warmup 0 times;
   *************  **   ~~~   **   during Sizing 0 times.
   *************  **   ~~~   **   Max=-3.187512E-002 {C}  Min=-37.415479 {C}
   *************
   *************
   ************* ===== Final Error Summary =====
   ************* The following error categories occurred.  Consider correcting or noting.
   ************* Nominally Unused Constructions
   ************* ..The nominally unused constructions warning is provided to alert you to potential conditions that can cause
   ************* ..extra time during simulation. Each construction is calculated by the algorithm indicated in the HeatBalanceAlgorithm
   ************* ..object. You may remove the constructions indicated (when you use the DisplayExtraWarnings option).
   *************
   ************* EnergyPlus Warmup Error Summary. During Warmup: 0 Warning; 0 Severe Errors.
   ************* EnergyPlus Sizing Error Summary. During Sizing: 40 Warning; 0 Severe Errors.
   ************* EnergyPlus Completed Successfully-- 5103524 Warning; 0 Severe Errors; Elapsed Time=00hr 01min 12.94sec
