  0
SECTION
  2
ENTITIES
999
DXF created from EnergyPlus
999
Program Version,EnergyPlus, Version 22.2.0-c249759bad, YMD=2023.04.03 12:51
999
Polygon Action,ThickPolyline
999
Color Scheme,Default
999
Text - True North
  0
TEXT
  8
1
  6
Continuous
 62
  3
 10
      -11.00000
 20
       -1.95929
 30
        0.10000
 40
 .25
  1
True North
 41
 0.0
  7
MONOTXT
210
0.0
220
0.0
230
1.0
999
Text - Building Title
  0
TEXT
  8
1
  6
Continuous
 62
  3
 10
      -14.00000
 20
       -5.95929
 30
        0.10000
 40
 .4
  1
Building - Tausendpfund
 41
 0.0
  7
MONOTXT
210
0.0
220
0.0
230
1.0
999
North Arrow Stem
  0
3DFACE
  8
1
 62
  3
 10
      -10.00000
 20
       -1.95929
 30
        0.10000
 11
      -10.00000
 21
       -1.95929
 31
        0.00000
 12
      -10.00000
 22
       -4.95929
 32
        0.00000
 13
      -10.00000
 23
       -4.95929
 33
        0.10000
999
North Arrow Head 1
  0
3DFACE
  8
1
 62
  3
 10
      -10.00000
 20
       -1.95929
 30
        0.10000
 11
      -10.00000
 21
       -1.95929
 31
        0.00000
 12
      -10.50000
 22
       -2.82532
 32
        0.00000
 13
      -10.50000
 23
       -2.82532
 33
        0.10000
999
North Arrow Head 2
  0
3DFACE
  8
1
 62
  3
 10
      -10.00000
 20
       -1.95929
 30
        0.10000
 11
      -10.00000
 21
       -1.95929
 31
        0.00000
 12
       -9.50000
 22
       -2.82532
 32
        0.00000
 13
       -9.50000
 23
       -2.82532
 33
        0.10000
999
North Arrow Side 1
  0
3DFACE
  8
1
 62
  3
 10
      -10.50000
 20
       -0.45929
 30
        0.10000
 11
      -10.50000
 21
       -0.45929
 31
        0.00000
 12
      -10.50000
 22
       -1.45929
 32
        0.00000
 13
      -10.50000
 23
       -1.45929
 33
        0.10000
999
North Arrow Side 2
  0
3DFACE
  8
1
 62
  3
 10
      -10.50000
 20
       -0.45929
 30
        0.10000
 11
      -10.50000
 21
       -0.45929
 31
        0.00000
 12
       -9.50000
 22
       -1.45929
 32
        0.00000
 13
       -9.50000
 23
       -1.45929
 33
        0.10000
999
North Arrow Side 3
  0
3DFACE
  8
1
 62
  3
 10
       -9.50000
 20
       -0.45929
 30
        0.10000
 11
       -9.50000
 21
       -0.45929
 31
        0.00000
 12
       -9.50000
 22
       -1.45929
 32
        0.00000
 13
       -9.50000
 23
       -1.45929
 33
        0.10000
999
Zone Names
999
Zone=1:OFFICE-0-0
999
Zone=2:OFFICE-0-1
999
Zone=3:OFFICE-0-2
999
Zone=4:OFFICE-0-3
999
Zone=5:TOILET-0-0
999
Zone=6:STAIRS-0-0
999
Zone=7:TECHNIC-0-0
999
Zone=8:CORRIDOR-0-0
999
Zone=9:OFFICE-1-0
999
Zone=10:OFFICE-1-1
999
Zone=11:OFFICE-1-2
999
Zone=12:OFFICE-1-3
999
Zone=13:TOILET-1-0
999
Zone=14:STAIRS-1-0
999
Zone=15:SERVICE-1-0
999
Zone=16:CORRIDOR-1-0
999
Zone=17:OFFICE-2-0
999
Zone=18:OFFICE-2-1
999
Zone=19:OFFICE-2-4
999
Zone=20:OFFICE-2-2
999
Zone=21:OFFICE-2-3
999
Zone=22:TOILET-2-0
999
Zone=23:STAIRS-2-0
999
Zone=24:TECHNIC-2-0
999
Zone=25:CORRIDOR-2-0
999
OFFICE-0-0:OFFICE-0-0.0.WEST.WALLEXTERNAL
  0
3DFACE
  8
OFFICE-0-0
 62
 43
 10
        4.36076
 20
       11.98108
 30
        0.00000
 11
        0.00000
 21
        0.00000
 31
        0.00000
 12
        0.00000
 22
        0.00000
 32
        3.25000
 13
        4.36076
 23
       11.98108
 33
        3.25000
999
OFFICE-0-0:OFFICE-0-0.0.WEST.WALLEXTERNAL.0.WINDOW
  0
3DFACE
  8
OFFICE-0-0
 62
143
 10
        4.29235
 20
       11.79314
 30
        0.60000
 11
        3.95033
 21
       10.85345
 31
        0.60000
 12
        3.95033
 22
       10.85345
 32
        2.40000
 13
        4.29235
 23
       11.79314
 33
        2.40000
999
OFFICE-0-0:OFFICE-0-0.0.WEST.WALLEXTERNAL.1.WINDOW
  0
3DFACE
  8
OFFICE-0-0
 62
143
 10
        3.40310
 20
        9.34994
 30
        0.01000
 11
        2.17183
 21
        5.96705
 31
        0.01000
 12
        2.17183
 22
        5.96705
 32
        2.40000
 13
        3.40310
 23
        9.34994
 33
        2.40000
999
OFFICE-0-0:OFFICE-0-0.0.WEST.WALLEXTERNAL.2.WINDOW
  0
3DFACE
  8
OFFICE-0-0
 62
143
 10
        1.62460
 20
        4.46354
 30
        0.60000
 11
        1.28258
 21
        3.52385
 31
        0.60000
 12
        1.28258
 22
        3.52385
 32
        2.40000
 13
        1.62460
 23
        4.46354
 33
        2.40000
999
OFFICE-0-0:OFFICE-0-0.0.WEST.WALLEXTERNAL.3.WINDOW
  0
3DFACE
  8
OFFICE-0-0
 62
143
 10
        0.73534
 20
        2.02034
 30
        0.01000
 11
        0.39332
 21
        1.08065
 31
        0.01000
 12
        0.39332
 22
        1.08065
 32
        2.40000
 13
        0.73534
 23
        2.02034
 33
        2.40000
999
OFFICE-0-0:OFFICE-0-0.1.SOUTH.WALLEXTERNAL
  0
3DFACE
  8
OFFICE-0-0
 62
 43
 10
        0.00000
 20
        0.00000
 30
        0.00000
 11
        5.63816
 21
       -2.05212
 31
        0.00000
 12
        5.63816
 22
       -2.05212
 32
        3.25000
 13
        0.00000
 23
        0.00000
 33
        3.25000
999
OFFICE-0-0:OFFICE-0-0.1.SOUTH.WALLEXTERNAL.0.WINDOW
  0
3DFACE
  8
OFFICE-0-0
 62
143
 10
        1.45652
 20
       -0.53013
 30
        0.60000
 11
        2.39622
 21
       -0.87215
 31
        0.60000
 12
        2.39622
 22
       -0.87215
 32
        2.40000
 13
        1.45652
 23
       -0.53013
 33
        2.40000
999
OFFICE-0-0:OFFICE-0-0.1.SOUTH.WALLEXTERNAL.1.WINDOW
  0
3DFACE
  8
OFFICE-0-0
 62
143
 10
        3.89972
 20
       -1.41938
 30
        0.60000
 11
        4.83942
 21
       -1.76140
 31
        0.60000
 12
        4.83942
 22
       -1.76140
 32
        2.40000
 13
        3.89972
 23
       -1.41938
 33
        2.40000
999
OFFICE-0-0:OFFICE-0-0.2.EAST.INTERNALWALL
  0
3DFACE
  8
OFFICE-0-0
 62
 43
 10
        5.63816
 20
       -2.05212
 30
        0.00000
 11
        9.99891
 21
        9.92896
 31
        0.00000
 12
        9.99891
 22
        9.92896
 32
        3.25000
 13
        5.63816
 23
       -2.05212
 33
        3.25000
999
OFFICE-0-0:OFFICE-0-0.3.NORTH.INTERNALWALL
  0
3DFACE
  8
OFFICE-0-0
 62
 43
 10
        9.99891
 20
        9.92896
 30
        0.00000
 11
        4.36076
 21
       11.98108
 31
        0.00000
 12
        4.36076
 22
       11.98108
 32
        3.25000
 13
        9.99891
 23
        9.92896
 33
        3.25000
999
OFFICE-0-0:OFFICE-0-0.0.FLOORGROUND
  0
3DFACE
  8
OFFICE-0-0
 62
  8
 10
        0.00000
 20
        0.00000
 30
        0.00000
 11
        4.36076
 21
       11.98108
 31
        0.00000
 12
        9.99891
 22
        9.92896
 32
        0.00000
 13
        5.63816
 23
       -2.05212
 33
        0.00000
999
OFFICE-0-0:OFFICE-0-0.1.CEILING
  0
3DFACE
  8
OFFICE-0-0
 62
 15
 10
        0.00000
 20
        0.00000
 30
        3.25000
 11
        5.63816
 21
       -2.05212
 31
        3.25000
 12
        9.99891
 22
        9.92896
 32
        3.25000
 13
        4.36076
 23
       11.98108
 33
        3.25000
999
OFFICE-0-1:OFFICE-0-1.0.WEST.WALLEXTERNAL
  0
3DFACE
  8
OFFICE-0-1
 62
 43
 10
        9.13194
 20
       25.08979
 30
        0.00000
 11
        5.38682
 21
       14.80016
 31
        0.00000
 12
        5.38682
 22
       14.80016
 32
        3.25000
 13
        9.13194
 23
       25.08979
 33
        3.25000
999
OFFICE-0-1:OFFICE-0-1.0.WEST.WALLEXTERNAL.0.WINDOW
  0
3DFACE
  8
OFFICE-0-1
 62
143
 10
        8.73861
 20
       24.00915
 30
        0.60000
 11
        8.39659
 21
       23.06945
 31
        0.60000
 12
        8.39659
 22
       23.06945
 32
        2.40000
 13
        8.73861
 23
       24.00915
 33
        2.40000
999
OFFICE-0-1:OFFICE-0-1.0.WEST.WALLEXTERNAL.1.WINDOW
  0
3DFACE
  8
OFFICE-0-1
 62
143
 10
        7.84936
 20
       21.56595
 30
        0.60000
 11
        7.50734
 21
       20.62625
 31
        0.60000
 12
        7.50734
 22
       20.62625
 32
        2.40000
 13
        7.84936
 23
       21.56595
 33
        2.40000
999
OFFICE-0-1:OFFICE-0-1.0.WEST.WALLEXTERNAL.2.WINDOW
  0
3DFACE
  8
OFFICE-0-1
 62
143
 10
        6.96011
 20
       19.12274
 30
        0.60000
 11
        6.61809
 21
       18.18305
 31
        0.60000
 12
        6.61809
 22
       18.18305
 32
        2.40000
 13
        6.96011
 23
       19.12274
 33
        2.40000
999
OFFICE-0-1:OFFICE-0-1.0.WEST.WALLEXTERNAL.3.WINDOW
  0
3DFACE
  8
OFFICE-0-1
 62
143
 10
        6.07086
 20
       16.67954
 30
        0.01000
 11
        5.72884
 21
       15.73985
 31
        0.01000
 12
        5.72884
 22
       15.73985
 32
        2.40000
 13
        6.07086
 23
       16.67954
 33
        2.40000
999
OFFICE-0-1:OFFICE-0-1.WALLEXTERNAL.3.NORTH
  0
3DFACE
  8
OFFICE-0-1
 62
 43
 10
       14.77009
 20
       23.03767
 30
        0.00000
 11
        9.13194
 21
       25.08979
 31
        0.00000
 12
        9.13194
 22
       25.08979
 32
        3.25000
 13
       14.77009
 23
       23.03767
 33
        3.25000
999
OFFICE-0-1:OFFICE-0-1.WALLEXTERNAL.3.NORTH.0.WINDOW
  0
3DFACE
  8
OFFICE-0-1
 62
143
 10
       13.97135
 20
       23.32839
 30
        0.60000
 11
       13.03166
 21
       23.67041
 31
        0.60000
 12
       13.03166
 22
       23.67041
 32
        2.40000
 13
       13.97135
 23
       23.32839
 33
        2.40000
999
OFFICE-0-1:OFFICE-0-1.WALLEXTERNAL.3.NORTH.1.WINDOW
  0
3DFACE
  8
OFFICE-0-1
 62
143
 10
       11.52815
 20
       24.21764
 30
        0.60000
 11
       10.58846
 21
       24.55966
 31
        0.60000
 12
       10.58846
 22
       24.55966
 32
        2.40000
 13
       11.52815
 23
       24.21764
 33
        2.40000
999
OFFICE-0-1:OFFICE-0-1.WALLINTERNAL.1.SOUTH
  0
3DFACE
  8
OFFICE-0-1
 62
 43
 10
        5.38682
 20
       14.80016
 30
        0.00000
 11
       11.02497
 21
       12.74804
 31
        0.00000
 12
       11.02497
 22
       12.74804
 32
        3.25000
 13
        5.38682
 23
       14.80016
 33
        3.25000
999
OFFICE-0-1:OFFICE-0-1.WALLINTERNAL.2.EAST
  0
3DFACE
  8
OFFICE-0-1
 62
 43
 10
       11.02497
 20
       12.74804
 30
        0.00000
 11
       14.77009
 21
       23.03767
 31
        0.00000
 12
       14.77009
 22
       23.03767
 32
        3.25000
 13
       11.02497
 23
       12.74804
 33
        3.25000
999
OFFICE-0-1:OFFICE-0-1.FLOORGROUND
  0
3DFACE
  8
OFFICE-0-1
 62
  8
 10
        5.38682
 20
       14.80016
 30
        0.00000
 11
        9.13194
 21
       25.08979
 31
        0.00000
 12
       14.77009
 22
       23.03767
 32
        0.00000
 13
       11.02497
 23
       12.74804
 33
        0.00000
999
OFFICE-0-1:OFFICE-0-1.CEILING
  0
3DFACE
  8
OFFICE-0-1
 62
 15
 10
        5.38682
 20
       14.80016
 30
        3.25000
 11
       11.02497
 21
       12.74804
 31
        3.25000
 12
       14.77009
 22
       23.03767
 32
        3.25000
 13
        9.13194
 23
       25.08979
 33
        3.25000
999
OFFICE-0-2:OFFICE-0-2.WALLEXTERNAL.2.EAST
  0
3DFACE
  8
OFFICE-0-2
 62
 43
 10
       19.01236
 20
        9.84087
 30
        0.00000
 11
       22.75748
 21
       20.13050
 31
        0.00000
 12
       22.75748
 22
       20.13050
 32
        3.25000
 13
       19.01236
 23
        9.84087
 33
        3.25000
999
OFFICE-0-2:OFFICE-0-2.WALLEXTERNAL.2.EAST.0.WINDOW
  0
3DFACE
  8
OFFICE-0-2
 62
143
 10
       22.02214
 20
       18.11016
 30
        0.60000
 11
       22.36416
 21
       19.04985
 31
        0.60000
 12
       22.36416
 22
       19.04985
 32
        2.40000
 13
       22.02214
 23
       18.11016
 33
        2.40000
999
OFFICE-0-2:OFFICE-0-2.WALLEXTERNAL.2.EAST.1.WINDOW
  0
3DFACE
  8
OFFICE-0-2
 62
143
 10
       21.13289
 20
       15.66696
 30
        0.60000
 11
       21.47491
 21
       16.60665
 31
        0.60000
 12
       21.47491
 22
       16.60665
 32
        2.40000
 13
       21.13289
 23
       15.66696
 33
        2.40000
999
OFFICE-0-2:OFFICE-0-2.WALLEXTERNAL.2.EAST.2.WINDOW
  0
3DFACE
  8
OFFICE-0-2
 62
143
 10
       20.24363
 20
       13.22376
 30
        0.60000
 11
       20.58565
 21
       14.16345
 31
        0.60000
 12
       20.58565
 22
       14.16345
 32
        2.40000
 13
       20.24363
 23
       13.22376
 33
        2.40000
999
OFFICE-0-2:OFFICE-0-2.WALLEXTERNAL.2.EAST.3.WINDOW
  0
3DFACE
  8
OFFICE-0-2
 62
143
 10
       19.35438
 20
       10.78056
 30
        0.01000
 11
       19.69640
 21
       11.72025
 31
        0.01000
 12
       19.69640
 22
       11.72025
 32
        2.40000
 13
       19.35438
 23
       10.78056
 33
        2.40000
999
OFFICE-0-2:OFFICE-0-2.WALLEXTERNAL.1.NORTH
  0
3DFACE
  8
OFFICE-0-2
 62
 43
 10
       22.75748
 20
       20.13050
 30
        0.00000
 11
       17.11933
 21
       22.18262
 31
        0.00000
 12
       17.11933
 22
       22.18262
 32
        3.25000
 13
       22.75748
 23
       20.13050
 33
        3.25000
999
OFFICE-0-2:OFFICE-0-2.WALLEXTERNAL.1.NORTH.0.WINDOW
  0
3DFACE
  8
OFFICE-0-2
 62
143
 10
       21.30096
 20
       20.66063
 30
        0.60000
 11
       20.36126
 21
       21.00265
 31
        0.60000
 12
       20.36126
 22
       21.00265
 32
        2.40000
 13
       21.30096
 23
       20.66063
 33
        2.40000
999
OFFICE-0-2:OFFICE-0-2.WALLEXTERNAL.1.NORTH.1.WINDOW
  0
3DFACE
  8
OFFICE-0-2
 62
143
 10
       18.85776
 20
       21.54988
 30
        0.60000
 11
       17.91806
 21
       21.89190
 31
        0.60000
 12
       17.91806
 22
       21.89190
 32
        2.40000
 13
       18.85776
 23
       21.54988
 33
        2.40000
999
OFFICE-0-2:OFFICE-0-2.WALLINTERNAL.3.SOUTH
  0
3DFACE
  8
OFFICE-0-2
 62
 43
 10
       16.66313
 20
       10.69592
 30
        0.00000
 11
       19.01236
 21
        9.84087
 31
        0.00000
 12
       19.01236
 22
        9.84087
 32
        3.25000
 13
       16.66313
 23
       10.69592
 33
        3.25000
999
OFFICE-0-2:OFFICE-0-2.WALLINTERNAL.4.SOUTH
  0
3DFACE
  8
OFFICE-0-2
 62
 43
 10
       13.37420
 20
       11.89299
 30
        0.00000
 11
       16.66313
 21
       10.69592
 31
        0.00000
 12
       16.66313
 22
       10.69592
 32
        3.25000
 13
       13.37420
 23
       11.89299
 33
        3.25000
999
OFFICE-0-2:OFFICE-0-2.WALLINTERNAL.0.WEST
  0
3DFACE
  8
OFFICE-0-2
 62
 43
 10
       17.11933
 20
       22.18262
 30
        0.00000
 11
       13.37420
 21
       11.89299
 31
        0.00000
 12
       13.37420
 22
       11.89299
 32
        3.25000
 13
       17.11933
 23
       22.18262
 33
        3.25000
999
OFFICE-0-2:OFFICE-0-2.FLOORGROUND
  0
3DFACE
  8
OFFICE-0-2
 62
  8
 10
       13.37420
 20
       11.89299
 30
        0.00000
 11
       17.11933
 21
       22.18262
 31
        0.00000
 12
       22.75748
 22
       20.13050
 32
        0.00000
 13
       19.01236
 23
        9.84087
 33
        0.00000
999
OFFICE-0-2:OFFICE-0-2.CEILING
  0
3DFACE
  8
OFFICE-0-2
 62
 15
 10
       13.37420
 20
       11.89299
 30
        3.25000
 11
       19.01236
 21
        9.84087
 31
        3.25000
 12
       22.75748
 22
       20.13050
 32
        3.25000
 13
       17.11933
 23
       22.18262
 33
        3.25000
999
OFFICE-0-3:OFFICE-0-3.WALLEXTERNAL.3.EAST
  0
3DFACE
  8
OFFICE-0-3
 62
 43
 10
       13.62554
 20
       -4.95929
 30
        0.00000
 11
       17.21675
 21
        4.90748
 31
        0.00000
 12
       17.21675
 22
        4.90748
 32
        3.25000
 13
       13.62554
 23
       -4.95929
 33
        3.25000
999
OFFICE-0-3:OFFICE-0-3.WALLEXTERNAL.3.EAST.0.WINDOW
  0
3DFACE
  8
OFFICE-0-3
 62
143
 10
       16.68662
 20
        3.45096
 30
        0.60000
 11
       17.02864
 21
        4.39065
 31
        0.60000
 12
       17.02864
 22
        4.39065
 32
        2.40000
 13
       16.68662
 23
        3.45096
 33
        2.40000
999
OFFICE-0-3:OFFICE-0-3.WALLEXTERNAL.3.EAST.1.WINDOW
  0
3DFACE
  8
OFFICE-0-3
 62
143
 10
       15.79737
 20
        1.00776
 30
        0.60000
 11
       16.13939
 21
        1.94745
 31
        0.60000
 12
       16.13939
 22
        1.94745
 32
        2.40000
 13
       15.79737
 23
        1.00776
 33
        2.40000
999
OFFICE-0-3:OFFICE-0-3.WALLEXTERNAL.3.EAST.2.WINDOW
  0
3DFACE
  8
OFFICE-0-3
 62
143
 10
       14.90812
 20
       -1.43544
 30
        0.60000
 11
       15.25014
 21
       -0.49575
 31
        0.60000
 12
       15.25014
 22
       -0.49575
 32
        2.40000
 13
       14.90812
 23
       -1.43544
 33
        2.40000
999
OFFICE-0-3:OFFICE-0-3.WALLEXTERNAL.3.EAST.3.WINDOW
  0
3DFACE
  8
OFFICE-0-3
 62
143
 10
       14.01887
 20
       -3.87865
 30
        0.01000
 11
       14.36089
 21
       -2.93895
 31
        0.01000
 12
       14.36089
 22
       -2.93895
 32
        2.40000
 13
       14.01887
 23
       -3.87865
 33
        2.40000
999
OFFICE-0-3:OFFICE-0-3.WALLEXTERNAL.4.SOUTH
  0
3DFACE
  8
OFFICE-0-3
 62
 43
 10
        7.98739
 20
       -2.90717
 30
        0.00000
 11
       13.62554
 21
       -4.95929
 31
        0.00000
 12
       13.62554
 22
       -4.95929
 32
        3.25000
 13
        7.98739
 23
       -2.90717
 33
        3.25000
999
OFFICE-0-3:OFFICE-0-3.WALLEXTERNAL.4.SOUTH.0.WINDOW
  0
3DFACE
  8
OFFICE-0-3
 62
143
 10
       11.22933
 20
       -4.08714
 30
        0.60000
 11
       12.16902
 21
       -4.42916
 31
        0.60000
 12
       12.16902
 22
       -4.42916
 32
        2.40000
 13
       11.22933
 23
       -4.08714
 33
        2.40000
999
OFFICE-0-3:OFFICE-0-3.WALLEXTERNAL.4.SOUTH.1.WINDOW
  0
3DFACE
  8
OFFICE-0-3
 62
143
 10
        8.78613
 20
       -3.19789
 30
        0.60000
 11
        9.72582
 21
       -3.53991
 31
        0.60000
 12
        9.72582
 22
       -3.53991
 32
        2.40000
 13
        8.78613
 23
       -3.19789
 33
        2.40000
999
OFFICE-0-3:OFFICE-0-3.WALLINTERNAL.2.NORTH
  0
3DFACE
  8
OFFICE-0-3
 62
 43
 10
       17.21675
 20
        4.90748
 30
        0.00000
 11
       14.86752
 21
        5.76253
 31
        0.00000
 12
       14.86752
 22
        5.76253
 32
        3.25000
 13
       17.21675
 23
        4.90748
 33
        3.25000
999
OFFICE-0-3:OFFICE-0-3.WALLINTERNAL.1.NORTH
  0
3DFACE
  8
OFFICE-0-3
 62
 43
 10
       14.86752
 20
        5.76253
 30
        0.00000
 11
       11.57860
 21
        6.95960
 31
        0.00000
 12
       11.57860
 22
        6.95960
 32
        3.25000
 13
       14.86752
 23
        5.76253
 33
        3.25000
999
OFFICE-0-3:OFFICE-0-3.WALLINTERNAL.0.WEST
  0
3DFACE
  8
OFFICE-0-3
 62
 43
 10
       11.57860
 20
        6.95960
 30
        0.00000
 11
        7.98739
 21
       -2.90717
 31
        0.00000
 12
        7.98739
 22
       -2.90717
 32
        3.25000
 13
       11.57860
 23
        6.95960
 33
        3.25000
999
OFFICE-0-3:OFFICE-0-3.FLOORGROUND
  0
3DFACE
  8
OFFICE-0-3
 62
  8
 10
        7.98739
 20
       -2.90717
 30
        0.00000
 11
       11.57860
 21
        6.95960
 31
        0.00000
 12
       17.21675
 22
        4.90748
 32
        0.00000
 13
       13.62554
 23
       -4.95929
 33
        0.00000
999
OFFICE-0-3:OFFICE-0-3.CEILING
  0
3DFACE
  8
OFFICE-0-3
 62
 15
 10
        7.98739
 20
       -2.90717
 30
        3.25000
 11
       13.62554
 21
       -4.95929
 31
        3.25000
 12
       17.21675
 22
        4.90748
 32
        3.25000
 13
       11.57860
 23
        6.95960
 33
        3.25000
999
TOILET-0-0:TOILET-0-0.WALLINTERNAL.0.WEST
  0
3DFACE
  8
TOILET-0-0
 62
 43
 10
       13.37420
 20
       11.89299
 30
        0.00000
 11
       11.57860
 21
        6.95960
 31
        0.00000
 12
       11.57860
 22
        6.95960
 32
        3.25000
 13
       13.37420
 23
       11.89299
 33
        3.25000
999
TOILET-0-0:TOILET-0-0.WALLINTERNAL.1.EAST
  0
3DFACE
  8
TOILET-0-0
 62
 43
 10
       14.86752
 20
        5.76253
 30
        0.00000
 11
       16.66313
 21
       10.69592
 31
        0.00000
 12
       16.66313
 22
       10.69592
 32
        3.25000
 13
       14.86752
 23
        5.76253
 33
        3.25000
999
TOILET-0-0:iz-OFFICE-0-2.WALLINTERNAL.4.SOUTH
  0
3DFACE
  8
TOILET-0-0
 62
 43
 10
       13.37420
 20
       11.89299
 30
        3.25000
 11
       16.66313
 21
       10.69592
 31
        3.25000
 12
       16.66313
 22
       10.69592
 32
        0.00000
 13
       13.37420
 23
       11.89299
 33
        0.00000
999
TOILET-0-0:iz-OFFICE-0-3.WALLINTERNAL.1.NORTH
  0
3DFACE
  8
TOILET-0-0
 62
 43
 10
       14.86752
 20
        5.76253
 30
        3.25000
 11
       11.57860
 21
        6.95960
 31
        3.25000
 12
       11.57860
 22
        6.95960
 32
        0.00000
 13
       14.86752
 23
        5.76253
 33
        0.00000
999
TOILET-0-0:TOILET-0-0.FLOORGROUND
  0
3DFACE
  8
TOILET-0-0
 62
  8
 10
       11.57860
 20
        6.95960
 30
        0.00000
 11
       13.37420
 21
       11.89299
 31
        0.00000
 12
       16.66313
 22
       10.69592
 32
        0.00000
 13
       14.86752
 23
        5.76253
 33
        0.00000
999
TOILET-0-0:TOILET-0-0.CEILING
  0
3DFACE
  8
TOILET-0-0
 62
 15
 10
       11.57860
 20
        6.95960
 30
        3.25000
 11
       14.86752
 21
        5.76253
 31
        3.25000
 12
       16.66313
 22
       10.69592
 32
        3.25000
 13
       13.37420
 23
       11.89299
 33
        3.25000
999
STAIRS-0-0:STAIRS-0-0.0.WEST.WALLEXTERNAL
  0
3DFACE
  8
STAIRS-0-0
 62
 43
 10
        5.38682
 20
       14.80016
 30
        0.00000
 11
        4.36076
 21
       11.98108
 31
        0.00000
 12
        4.36076
 22
       11.98108
 32
        3.25000
 13
        5.38682
 23
       14.80016
 33
        3.25000
999
STAIRS-0-0:STAIRS-0-0.0.WEST.WALLEXTERNAL.0.WINDOW
  0
3DFACE
  8
STAIRS-0-0
 62
143
 10
        5.18161
 20
       14.23634
 30
        0.60000
 11
        4.83959
 21
       13.29665
 31
        0.60000
 12
        4.83959
 22
       13.29665
 32
        2.40000
 13
        5.18161
 23
       14.23634
 33
        2.40000
999
STAIRS-0-0:STAIRS-0-0.0.EAST.WALLINTERNAL
  0
3DFACE
  8
STAIRS-0-0
 62
 43
 10
        9.99891
 20
        9.92896
 30
        0.00000
 11
       11.02497
 21
       12.74804
 31
        0.00000
 12
       11.02497
 22
       12.74804
 32
        3.25000
 13
        9.99891
 23
        9.92896
 33
        3.25000
999
STAIRS-0-0:iz-OFFICE-0-0.3.NORTH.INTERNALWALL
  0
3DFACE
  8
STAIRS-0-0
 62
 43
 10
        9.99891
 20
        9.92896
 30
        3.25000
 11
        4.36076
 21
       11.98108
 31
        3.25000
 12
        4.36076
 22
       11.98108
 32
        0.00000
 13
        9.99891
 23
        9.92896
 33
        0.00000
999
STAIRS-0-0:iz-OFFICE-0-1.WALLINTERNAL.1.SOUTH
  0
3DFACE
  8
STAIRS-0-0
 62
 43
 10
        5.38682
 20
       14.80016
 30
        3.25000
 11
       11.02497
 21
       12.74804
 31
        3.25000
 12
       11.02497
 22
       12.74804
 32
        0.00000
 13
        5.38682
 23
       14.80016
 33
        0.00000
999
STAIRS-0-0:STAIRS-0-0.FLOORGROUND
  0
3DFACE
  8
STAIRS-0-0
 62
  8
 10
        4.36076
 20
       11.98108
 30
        0.00000
 11
        5.38682
 21
       14.80016
 31
        0.00000
 12
       11.02497
 22
       12.74804
 32
        0.00000
 13
        9.99891
 23
        9.92896
 33
        0.00000
999
STAIRS-0-0:STAIRS-0-0.CEILING
  0
3DFACE
  8
STAIRS-0-0
 62
 15
 10
        4.36076
 20
       11.98108
 30
        3.25000
 11
        9.99891
 21
        9.92896
 31
        3.25000
 12
       11.02497
 22
       12.74804
 32
        3.25000
 13
        5.38682
 23
       14.80016
 33
        3.25000
999
TECHNIC-0-0:TECHNIC-0-0.0.EAST.WALLEXTERNAL
  0
3DFACE
  8
TECHNIC-0-0
 62
 43
 10
       17.21675
 20
        4.90748
 30
        0.00000
 11
       19.01236
 21
        9.84087
 31
        0.00000
 12
       19.01236
 22
        9.84087
 32
        3.25000
 13
       17.21675
 23
        4.90748
 33
        3.25000
999
TECHNIC-0-0:TECHNIC-0-0.0.EAST.WALLEXTERNAL.0.WINDOW
  0
3DFACE
  8
TECHNIC-0-0
 62
143
 10
       17.57588
 20
        5.89416
 30
        0.01000
 11
       17.91790
 21
        6.83385
 31
        0.01000
 12
       17.91790
 22
        6.83385
 32
        2.40000
 13
       17.57588
 23
        5.89416
 33
        2.40000
999
TECHNIC-0-0:TECHNIC-0-0.0.EAST.WALLEXTERNAL.1.WINDOW
  0
3DFACE
  8
TECHNIC-0-0
 62
143
 10
       18.46513
 20
        8.33736
 30
        1.80000
 11
       18.80715
 21
        9.27705
 31
        1.80000
 12
       18.80715
 22
        9.27705
 32
        2.40000
 13
       18.46513
 23
        8.33736
 33
        2.40000
999
TECHNIC-0-0:iz-OFFICE-0-2.WALLINTERNAL.3.SOUTH
  0
3DFACE
  8
TECHNIC-0-0
 62
 43
 10
       16.66313
 20
       10.69592
 30
        3.25000
 11
       19.01236
 21
        9.84087
 31
        3.25000
 12
       19.01236
 22
        9.84087
 32
        0.00000
 13
       16.66313
 23
       10.69592
 33
        0.00000
999
TECHNIC-0-0:iz-OFFICE-0-3.WALLINTERNAL.2.NORTH
  0
3DFACE
  8
TECHNIC-0-0
 62
 43
 10
       17.21675
 20
        4.90748
 30
        3.25000
 11
       14.86752
 21
        5.76253
 31
        3.25000
 12
       14.86752
 22
        5.76253
 32
        0.00000
 13
       17.21675
 23
        4.90748
 33
        0.00000
999
TECHNIC-0-0:iz-TOILET-0-0.WALLINTERNAL.1.EAST
  0
3DFACE
  8
TECHNIC-0-0
 62
 43
 10
       14.86752
 20
        5.76253
 30
        3.25000
 11
       16.66313
 21
       10.69592
 31
        3.25000
 12
       16.66313
 22
       10.69592
 32
        0.00000
 13
       14.86752
 23
        5.76253
 33
        0.00000
999
TECHNIC-0-0:TECHNIC-0-0.FLOORGROUND
  0
3DFACE
  8
TECHNIC-0-0
 62
  8
 10
       14.86752
 20
        5.76253
 30
        0.00000
 11
       16.66313
 21
       10.69592
 31
        0.00000
 12
       19.01236
 22
        9.84087
 32
        0.00000
 13
       17.21675
 23
        4.90748
 33
        0.00000
999
TECHNIC-0-0:TECHNIC-0-0.CEILING
  0
3DFACE
  8
TECHNIC-0-0
 62
 15
 10
       14.86752
 20
        5.76253
 30
        3.25000
 11
       17.21675
 21
        4.90748
 31
        3.25000
 12
       19.01236
 22
        9.84087
 32
        3.25000
 13
       16.66313
 23
       10.69592
 33
        3.25000
999
CORRIDOR-0-0:CORRIDOR-0-0.0.NORTH.WALLEXTERNAL
  0
3DFACE
  8
CORRIDOR-0-0
 62
 43
 10
       17.11933
 20
       22.18262
 30
        0.00000
 11
       14.77009
 21
       23.03767
 31
        0.00000
 12
       14.77009
 22
       23.03767
 32
        3.25000
 13
       17.11933
 23
       22.18262
 33
        3.25000
999
CORRIDOR-0-0:CORRIDOR-0-0.0.NORTH.WALLEXTERNAL.0.WINDOW
  0
3DFACE
  8
CORRIDOR-0-0
 62
143
 10
       16.41456
 20
       22.43914
 30
        0.60000
 11
       15.47486
 21
       22.78116
 31
        0.60000
 12
       15.47486
 22
       22.78116
 32
        2.40000
 13
       16.41456
 23
       22.43914
 33
        2.40000
999
CORRIDOR-0-0:CORRIDOR-0-0.1.SOUTH.WALLEXTERNAL
  0
3DFACE
  8
CORRIDOR-0-0
 62
 43
 10
        5.63816
 20
       -2.05212
 30
        0.00000
 11
        7.98739
 21
       -2.90717
 31
        0.00000
 12
        7.98739
 22
       -2.90717
 32
        3.25000
 13
        5.63816
 23
       -2.05212
 33
        3.25000
999
CORRIDOR-0-0:CORRIDOR-0-0.1.SOUTH.WALLEXTERNAL.0.WINDOW
  0
3DFACE
  8
CORRIDOR-0-0
 62
143
 10
        6.34293
 20
       -2.30864
 30
        0.60000
 11
        7.28262
 21
       -2.65066
 31
        0.60000
 12
        7.28262
 22
       -2.65066
 32
        2.40000
 13
        6.34293
 23
       -2.30864
 33
        2.40000
999
CORRIDOR-0-0:iz-OFFICE-0-0.2.EAST.INTERNALWALL
  0
3DFACE
  8
CORRIDOR-0-0
 62
 43
 10
        5.63816
 20
       -2.05212
 30
        3.25000
 11
        9.99891
 21
        9.92896
 31
        3.25000
 12
        9.99891
 22
        9.92896
 32
        0.00000
 13
        5.63816
 23
       -2.05212
 33
        0.00000
999
CORRIDOR-0-0:iz-OFFICE-0-1.WALLINTERNAL.2.EAST
  0
3DFACE
  8
CORRIDOR-0-0
 62
 43
 10
       11.02497
 20
       12.74804
 30
        3.25000
 11
       14.77009
 21
       23.03767
 31
        3.25000
 12
       14.77009
 22
       23.03767
 32
        0.00000
 13
       11.02497
 23
       12.74804
 33
        0.00000
999
CORRIDOR-0-0:iz-OFFICE-0-2.WALLINTERNAL.0.WEST
  0
3DFACE
  8
CORRIDOR-0-0
 62
 43
 10
       17.11933
 20
       22.18262
 30
        3.25000
 11
       13.37420
 21
       11.89299
 31
        3.25000
 12
       13.37420
 22
       11.89299
 32
        0.00000
 13
       17.11933
 23
       22.18262
 33
        0.00000
999
CORRIDOR-0-0:iz-OFFICE-0-3.WALLINTERNAL.0.WEST
  0
3DFACE
  8
CORRIDOR-0-0
 62
 43
 10
       11.57860
 20
        6.95960
 30
        3.25000
 11
        7.98739
 21
       -2.90717
 31
        3.25000
 12
        7.98739
 22
       -2.90717
 32
        0.00000
 13
       11.57860
 23
        6.95960
 33
        0.00000
999
CORRIDOR-0-0:iz-TOILET-0-0.WALLINTERNAL.0.WEST
  0
3DFACE
  8
CORRIDOR-0-0
 62
 43
 10
       13.37420
 20
       11.89299
 30
        3.25000
 11
       11.57860
 21
        6.95960
 31
        3.25000
 12
       11.57860
 22
        6.95960
 32
        0.00000
 13
       13.37420
 23
       11.89299
 33
        0.00000
999
CORRIDOR-0-0:iz-STAIRS-0-0.0.EAST.WALLINTERNAL
  0
3DFACE
  8
CORRIDOR-0-0
 62
 43
 10
        9.99891
 20
        9.92896
 30
        3.25000
 11
       11.02497
 21
       12.74804
 31
        3.25000
 12
       11.02497
 22
       12.74804
 32
        0.00000
 13
        9.99891
 23
        9.92896
 33
        0.00000
999
CORRIDOR-0-0:CORRIDOR-0-0.FLOORGROUND
  0
3DFACE
  8
CORRIDOR-0-0
 62
  8
 10
        5.63816
 20
       -2.05212
 30
        0.00000
 11
       14.77009
 21
       23.03767
 31
        0.00000
 12
       17.11933
 22
       22.18262
 32
        0.00000
 13
        7.98739
 23
       -2.90717
 33
        0.00000
999
CORRIDOR-0-0:CORRIDOR-0-0.CEILING
  0
3DFACE
  8
CORRIDOR-0-0
 62
 15
 10
        5.63816
 20
       -2.05212
 30
        3.25000
 11
        7.98739
 21
       -2.90717
 31
        3.25000
 12
       17.11933
 22
       22.18262
 32
        3.25000
 13
       14.77009
 23
       23.03767
 33
        3.25000
999
OFFICE-1-0:OFFICE-1-0.0.WEST.WALLEXTERNAL
  0
3DFACE
  8
OFFICE-1-0
 62
 43
 10
        3.59121
 20
        9.86677
 30
        3.25000
 11
        0.00000
 21
        0.00000
 31
        3.25000
 12
        0.00000
 22
        0.00000
 32
        6.50000
 13
        3.59121
 23
        9.86677
 33
        6.50000
999
OFFICE-1-0:OFFICE-1-0.0.WEST.WALLEXTERNAL.0.WINDOW
  0
3DFACE
  8
OFFICE-1-0
 62
143
 10
        3.40310
 20
        9.34994
 30
        3.85000
 11
        3.06108
 21
        8.41025
 31
        3.85000
 12
        3.06108
 22
        8.41025
 32
        5.65000
 13
        3.40310
 23
        9.34994
 33
        5.65000
999
OFFICE-1-0:OFFICE-1-0.0.WEST.WALLEXTERNAL.1.WINDOW
  0
3DFACE
  8
OFFICE-1-0
 62
143
 10
        2.51385
 20
        6.90674
 30
        3.85000
 11
        2.17183
 21
        5.96705
 31
        3.85000
 12
        2.17183
 22
        5.96705
 32
        5.65000
 13
        2.51385
 23
        6.90674
 33
        5.65000
999
OFFICE-1-0:OFFICE-1-0.0.WEST.WALLEXTERNAL.2.WINDOW
  0
3DFACE
  8
OFFICE-1-0
 62
143
 10
        1.62460
 20
        4.46354
 30
        3.85000
 11
        1.28258
 21
        3.52385
 31
        3.85000
 12
        1.28258
 22
        3.52385
 32
        5.65000
 13
        1.62460
 23
        4.46354
 33
        5.65000
999
OFFICE-1-0:OFFICE-1-0.0.WEST.WALLEXTERNAL.3.WINDOW
  0
3DFACE
  8
OFFICE-1-0
 62
143
 10
        0.73534
 20
        2.02034
 30
        3.85000
 11
        0.39332
 21
        1.08065
 31
        3.85000
 12
        0.39332
 22
        1.08065
 32
        5.65000
 13
        0.73534
 23
        2.02034
 33
        5.65000
999
OFFICE-1-0:OFFICE-1-0.1.SOUTH.WALLEXTERNAL
  0
3DFACE
  8
OFFICE-1-0
 62
 43
 10
        0.00000
 20
        0.00000
 30
        3.25000
 11
        5.63816
 21
       -2.05212
 31
        3.25000
 12
        5.63816
 22
       -2.05212
 32
        6.50000
 13
        0.00000
 23
        0.00000
 33
        6.50000
999
OFFICE-1-0:OFFICE-1-0.1.SOUTH.WALLEXTERNAL.0.WINDOW
  0
3DFACE
  8
OFFICE-1-0
 62
143
 10
        1.45652
 20
       -0.53013
 30
        3.85000
 11
        2.39622
 21
       -0.87215
 31
        3.85000
 12
        2.39622
 22
       -0.87215
 32
        5.65000
 13
        1.45652
 23
       -0.53013
 33
        5.65000
999
OFFICE-1-0:OFFICE-1-0.1.SOUTH.WALLEXTERNAL.1.WINDOW
  0
3DFACE
  8
OFFICE-1-0
 62
143
 10
        3.89972
 20
       -1.41938
 30
        3.85000
 11
        4.83942
 21
       -1.76140
 31
        3.85000
 12
        4.83942
 22
       -1.76140
 32
        5.65000
 13
        3.89972
 23
       -1.41938
 33
        5.65000
999
OFFICE-1-0:OFFICE-1-0.2.EAST.INTERNALWALL
  0
3DFACE
  8
OFFICE-1-0
 62
 43
 10
        5.63816
 20
       -2.05212
 30
        3.25000
 11
        9.22937
 21
        7.81465
 31
        3.25000
 12
        9.22937
 22
        7.81465
 32
        6.50000
 13
        5.63816
 23
       -2.05212
 33
        6.50000
999
OFFICE-1-0:OFFICE-1-0.3.NORTH.INTERNALWALL
  0
3DFACE
  8
OFFICE-1-0
 62
 43
 10
        9.22937
 20
        7.81465
 30
        3.25000
 11
        3.59121
 21
        9.86677
 31
        3.25000
 12
        3.59121
 22
        9.86677
 32
        6.50000
 13
        9.22937
 23
        7.81465
 33
        6.50000
999
OFFICE-1-0:OFFICE-1-0.0.FLOORINTERNAL
  0
3DFACE
  8
OFFICE-1-0
 62
  8
 10
        0.00000
 20
        0.00000
 30
        3.25000
 11
        3.59121
 21
        9.86677
 31
        3.25000
 12
        9.22937
 22
        7.81465
 32
        3.25000
 13
        5.63816
 23
       -2.05212
 33
        3.25000
999
OFFICE-1-0:OFFICE-1-0.1.CEILING
  0
3DFACE
  8
OFFICE-1-0
 62
 15
 10
        0.00000
 20
        0.00000
 30
        6.50000
 11
        5.63816
 21
       -2.05212
 31
        6.50000
 12
        9.22937
 22
        7.81465
 32
        6.50000
 13
        3.59121
 23
        9.86677
 33
        6.50000
999
OFFICE-1-1:OFFICE-1-1.0.WEST.WALLEXTERNAL
  0
3DFACE
  8
OFFICE-1-1
 62
 43
 10
        9.13194
 20
       25.08979
 30
        3.25000
 11
        5.38682
 21
       14.80016
 31
        3.25000
 12
        5.38682
 22
       14.80016
 32
        6.50000
 13
        9.13194
 23
       25.08979
 33
        6.50000
999
OFFICE-1-1:OFFICE-1-1.0.WEST.WALLEXTERNAL.0.WINDOW
  0
3DFACE
  8
OFFICE-1-1
 62
143
 10
        8.73861
 20
       24.00915
 30
        3.85000
 11
        8.39659
 21
       23.06945
 31
        3.85000
 12
        8.39659
 22
       23.06945
 32
        5.65000
 13
        8.73861
 23
       24.00915
 33
        5.65000
999
OFFICE-1-1:OFFICE-1-1.0.WEST.WALLEXTERNAL.1.WINDOW
  0
3DFACE
  8
OFFICE-1-1
 62
143
 10
        7.84936
 20
       21.56595
 30
        3.85000
 11
        7.50734
 21
       20.62625
 31
        3.85000
 12
        7.50734
 22
       20.62625
 32
        5.65000
 13
        7.84936
 23
       21.56595
 33
        5.65000
999
OFFICE-1-1:OFFICE-1-1.0.WEST.WALLEXTERNAL.2.WINDOW
  0
3DFACE
  8
OFFICE-1-1
 62
143
 10
        6.96011
 20
       19.12274
 30
        3.85000
 11
        6.61809
 21
       18.18305
 31
        3.85000
 12
        6.61809
 22
       18.18305
 32
        5.65000
 13
        6.96011
 23
       19.12274
 33
        5.65000
999
OFFICE-1-1:OFFICE-1-1.0.WEST.WALLEXTERNAL.3.WINDOW
  0
3DFACE
  8
OFFICE-1-1
 62
143
 10
        6.07086
 20
       16.67954
 30
        3.85000
 11
        5.72884
 21
       15.73985
 31
        3.85000
 12
        5.72884
 22
       15.73985
 32
        5.65000
 13
        6.07086
 23
       16.67954
 33
        5.65000
999
OFFICE-1-1:OFFICE-1-1.WALLEXTERNAL.3.NORTH
  0
3DFACE
  8
OFFICE-1-1
 62
 43
 10
       14.77009
 20
       23.03767
 30
        3.25000
 11
        9.13194
 21
       25.08979
 31
        3.25000
 12
        9.13194
 22
       25.08979
 32
        6.50000
 13
       14.77009
 23
       23.03767
 33
        6.50000
999
OFFICE-1-1:OFFICE-1-1.WALLEXTERNAL.3.NORTH.0.WINDOW
  0
3DFACE
  8
OFFICE-1-1
 62
143
 10
       13.97135
 20
       23.32839
 30
        3.85000
 11
       13.03166
 21
       23.67041
 31
        3.85000
 12
       13.03166
 22
       23.67041
 32
        5.65000
 13
       13.97135
 23
       23.32839
 33
        5.65000
999
OFFICE-1-1:OFFICE-1-1.WALLEXTERNAL.3.NORTH.1.WINDOW
  0
3DFACE
  8
OFFICE-1-1
 62
143
 10
       11.52815
 20
       24.21764
 30
        3.85000
 11
       10.58846
 21
       24.55966
 31
        3.85000
 12
       10.58846
 22
       24.55966
 32
        5.65000
 13
       11.52815
 23
       24.21764
 33
        5.65000
999
OFFICE-1-1:OFFICE-1-1.WALLINTERNAL.1.SOUTH
  0
3DFACE
  8
OFFICE-1-1
 62
 43
 10
        5.38682
 20
       14.80016
 30
        3.25000
 11
       11.02497
 21
       12.74804
 31
        3.25000
 12
       11.02497
 22
       12.74804
 32
        6.50000
 13
        5.38682
 23
       14.80016
 33
        6.50000
999
OFFICE-1-1:OFFICE-1-1.WALLINTERNAL.2.EAST
  0
3DFACE
  8
OFFICE-1-1
 62
 43
 10
       11.02497
 20
       12.74804
 30
        3.25000
 11
       14.77009
 21
       23.03767
 31
        3.25000
 12
       14.77009
 22
       23.03767
 32
        6.50000
 13
       11.02497
 23
       12.74804
 33
        6.50000
999
OFFICE-1-1:OFFICE-1-1.FLOORINTERNAL
  0
3DFACE
  8
OFFICE-1-1
 62
  8
 10
        5.38682
 20
       14.80016
 30
        3.25000
 11
        9.13194
 21
       25.08979
 31
        3.25000
 12
       14.77009
 22
       23.03767
 32
        3.25000
 13
       11.02497
 23
       12.74804
 33
        3.25000
999
OFFICE-1-1:OFFICE-1-1.CEILING
  0
3DFACE
  8
OFFICE-1-1
 62
 15
 10
        5.38682
 20
       14.80016
 30
        6.50000
 11
       11.02497
 21
       12.74804
 31
        6.50000
 12
       14.77009
 22
       23.03767
 32
        6.50000
 13
        9.13194
 23
       25.08979
 33
        6.50000
999
OFFICE-1-2:OFFICE-1-2.WALLEXTERNAL.2.EAST
  0
3DFACE
  8
OFFICE-1-2
 62
 43
 10
       19.01236
 20
        9.84087
 30
        3.25000
 11
       22.75748
 21
       20.13050
 31
        3.25000
 12
       22.75748
 22
       20.13050
 32
        6.50000
 13
       19.01236
 23
        9.84087
 33
        6.50000
999
OFFICE-1-2:OFFICE-1-2.WALLEXTERNAL.2.EAST.0.WINDOW
  0
3DFACE
  8
OFFICE-1-2
 62
143
 10
       22.02214
 20
       18.11016
 30
        3.85000
 11
       22.36416
 21
       19.04985
 31
        3.85000
 12
       22.36416
 22
       19.04985
 32
        5.65000
 13
       22.02214
 23
       18.11016
 33
        5.65000
999
OFFICE-1-2:OFFICE-1-2.WALLEXTERNAL.2.EAST.1.WINDOW
  0
3DFACE
  8
OFFICE-1-2
 62
143
 10
       21.13289
 20
       15.66696
 30
        3.85000
 11
       21.47491
 21
       16.60665
 31
        3.85000
 12
       21.47491
 22
       16.60665
 32
        5.65000
 13
       21.13289
 23
       15.66696
 33
        5.65000
999
OFFICE-1-2:OFFICE-1-2.WALLEXTERNAL.2.EAST.2.WINDOW
  0
3DFACE
  8
OFFICE-1-2
 62
143
 10
       20.24363
 20
       13.22376
 30
        3.85000
 11
       20.58565
 21
       14.16345
 31
        3.85000
 12
       20.58565
 22
       14.16345
 32
        5.65000
 13
       20.24363
 23
       13.22376
 33
        5.65000
999
OFFICE-1-2:OFFICE-1-2.WALLEXTERNAL.2.EAST.3.WINDOW
  0
3DFACE
  8
OFFICE-1-2
 62
143
 10
       19.35438
 20
       10.78056
 30
        3.85000
 11
       19.69640
 21
       11.72025
 31
        3.85000
 12
       19.69640
 22
       11.72025
 32
        5.65000
 13
       19.35438
 23
       10.78056
 33
        5.65000
999
OFFICE-1-2:OFFICE-1-2.WALLEXTERNAL.1.NORTH
  0
3DFACE
  8
OFFICE-1-2
 62
 43
 10
       22.75748
 20
       20.13050
 30
        3.25000
 11
       17.11933
 21
       22.18262
 31
        3.25000
 12
       17.11933
 22
       22.18262
 32
        6.50000
 13
       22.75748
 23
       20.13050
 33
        6.50000
999
OFFICE-1-2:OFFICE-1-2.WALLEXTERNAL.1.NORTH.0.WINDOW
  0
3DFACE
  8
OFFICE-1-2
 62
143
 10
       21.30096
 20
       20.66063
 30
        3.85000
 11
       20.36126
 21
       21.00265
 31
        3.85000
 12
       20.36126
 22
       21.00265
 32
        5.65000
 13
       21.30096
 23
       20.66063
 33
        5.65000
999
OFFICE-1-2:OFFICE-1-2.WALLEXTERNAL.1.NORTH.1.WINDOW
  0
3DFACE
  8
OFFICE-1-2
 62
143
 10
       18.85776
 20
       21.54988
 30
        3.85000
 11
       17.91806
 21
       21.89190
 31
        3.85000
 12
       17.91806
 22
       21.89190
 32
        5.65000
 13
       18.85776
 23
       21.54988
 33
        5.65000
999
OFFICE-1-2:OFFICE-1-2.WALLINTERNAL.3.SOUTH
  0
3DFACE
  8
OFFICE-1-2
 62
 43
 10
       16.66313
 20
       10.69592
 30
        3.25000
 11
       19.01236
 21
        9.84087
 31
        3.25000
 12
       19.01236
 22
        9.84087
 32
        6.50000
 13
       16.66313
 23
       10.69592
 33
        6.50000
999
OFFICE-1-2:OFFICE-1-2.WALLINTERNAL.4.SOUTH
  0
3DFACE
  8
OFFICE-1-2
 62
 43
 10
       13.37420
 20
       11.89299
 30
        3.25000
 11
       16.66313
 21
       10.69592
 31
        3.25000
 12
       16.66313
 22
       10.69592
 32
        6.50000
 13
       13.37420
 23
       11.89299
 33
        6.50000
999
OFFICE-1-2:OFFICE-1-2.WALLINTERNAL.0.WEST
  0
3DFACE
  8
OFFICE-1-2
 62
 43
 10
       17.11933
 20
       22.18262
 30
        3.25000
 11
       13.37420
 21
       11.89299
 31
        3.25000
 12
       13.37420
 22
       11.89299
 32
        6.50000
 13
       17.11933
 23
       22.18262
 33
        6.50000
999
OFFICE-1-2:OFFICE-1-2.FLOORINTERNAL
  0
3DFACE
  8
OFFICE-1-2
 62
  8
 10
       13.37420
 20
       11.89299
 30
        3.25000
 11
       17.11933
 21
       22.18262
 31
        3.25000
 12
       22.75748
 22
       20.13050
 32
        3.25000
 13
       19.01236
 23
        9.84087
 33
        3.25000
999
OFFICE-1-2:OFFICE-1-2.CEILING
  0
3DFACE
  8
OFFICE-1-2
 62
 15
 10
       13.37420
 20
       11.89299
 30
        6.50000
 11
       19.01236
 21
        9.84087
 31
        6.50000
 12
       22.75748
 22
       20.13050
 32
        6.50000
 13
       17.11933
 23
       22.18262
 33
        6.50000
999
OFFICE-1-3:OFFICE-1-3.WALLEXTERNAL.3.EAST
  0
3DFACE
  8
OFFICE-1-3
 62
 43
 10
       13.62554
 20
       -4.95929
 30
        3.25000
 11
       17.21675
 21
        4.90748
 31
        3.25000
 12
       17.21675
 22
        4.90748
 32
        6.50000
 13
       13.62554
 23
       -4.95929
 33
        6.50000
999
OFFICE-1-3:OFFICE-1-3.WALLEXTERNAL.3.EAST.0.WINDOW
  0
3DFACE
  8
OFFICE-1-3
 62
143
 10
       16.68662
 20
        3.45096
 30
        3.85000
 11
       17.02864
 21
        4.39065
 31
        3.85000
 12
       17.02864
 22
        4.39065
 32
        5.65000
 13
       16.68662
 23
        3.45096
 33
        5.65000
999
OFFICE-1-3:OFFICE-1-3.WALLEXTERNAL.3.EAST.1.WINDOW
  0
3DFACE
  8
OFFICE-1-3
 62
143
 10
       15.79737
 20
        1.00776
 30
        3.85000
 11
       16.13939
 21
        1.94745
 31
        3.85000
 12
       16.13939
 22
        1.94745
 32
        5.65000
 13
       15.79737
 23
        1.00776
 33
        5.65000
999
OFFICE-1-3:OFFICE-1-3.WALLEXTERNAL.3.EAST.2.WINDOW
  0
3DFACE
  8
OFFICE-1-3
 62
143
 10
       14.90812
 20
       -1.43544
 30
        3.85000
 11
       15.25014
 21
       -0.49575
 31
        3.85000
 12
       15.25014
 22
       -0.49575
 32
        5.65000
 13
       14.90812
 23
       -1.43544
 33
        5.65000
999
OFFICE-1-3:OFFICE-1-3.WALLEXTERNAL.3.EAST.3.WINDOW
  0
3DFACE
  8
OFFICE-1-3
 62
143
 10
       14.01887
 20
       -3.87865
 30
        3.85000
 11
       14.36089
 21
       -2.93895
 31
        3.85000
 12
       14.36089
 22
       -2.93895
 32
        5.65000
 13
       14.01887
 23
       -3.87865
 33
        5.65000
999
OFFICE-1-3:OFFICE-1-3.WALLEXTERNAL.4.SOUTH
  0
3DFACE
  8
OFFICE-1-3
 62
 43
 10
        7.98739
 20
       -2.90717
 30
        3.25000
 11
       13.62554
 21
       -4.95929
 31
        3.25000
 12
       13.62554
 22
       -4.95929
 32
        6.50000
 13
        7.98739
 23
       -2.90717
 33
        6.50000
999
OFFICE-1-3:OFFICE-1-3.WALLEXTERNAL.4.SOUTH.0.WINDOW
  0
3DFACE
  8
OFFICE-1-3
 62
143
 10
       11.22933
 20
       -4.08714
 30
        3.85000
 11
       12.16902
 21
       -4.42916
 31
        3.85000
 12
       12.16902
 22
       -4.42916
 32
        5.65000
 13
       11.22933
 23
       -4.08714
 33
        5.65000
999
OFFICE-1-3:OFFICE-1-3.WALLEXTERNAL.4.SOUTH.1.WINDOW
  0
3DFACE
  8
OFFICE-1-3
 62
143
 10
        8.78613
 20
       -3.19789
 30
        3.85000
 11
        9.72582
 21
       -3.53991
 31
        3.85000
 12
        9.72582
 22
       -3.53991
 32
        5.65000
 13
        8.78613
 23
       -3.19789
 33
        5.65000
999
OFFICE-1-3:OFFICE-1-3.WALLINTERNAL.2.NORTH
  0
3DFACE
  8
OFFICE-1-3
 62
 43
 10
       17.21675
 20
        4.90748
 30
        3.25000
 11
       14.86752
 21
        5.76253
 31
        3.25000
 12
       14.86752
 22
        5.76253
 32
        6.50000
 13
       17.21675
 23
        4.90748
 33
        6.50000
999
OFFICE-1-3:OFFICE-1-3.WALLINTERNAL.1.NORTH
  0
3DFACE
  8
OFFICE-1-3
 62
 43
 10
       14.86752
 20
        5.76253
 30
        3.25000
 11
       11.57860
 21
        6.95960
 31
        3.25000
 12
       11.57860
 22
        6.95960
 32
        6.50000
 13
       14.86752
 23
        5.76253
 33
        6.50000
999
OFFICE-1-3:OFFICE-1-3.WALLINTERNAL.0.WEST
  0
3DFACE
  8
OFFICE-1-3
 62
 43
 10
       11.57860
 20
        6.95960
 30
        3.25000
 11
        7.98739
 21
       -2.90717
 31
        3.25000
 12
        7.98739
 22
       -2.90717
 32
        6.50000
 13
       11.57860
 23
        6.95960
 33
        6.50000
999
OFFICE-1-3:OFFICE-1-3.FLOORINTERNAL
  0
3DFACE
  8
OFFICE-1-3
 62
  8
 10
        7.98739
 20
       -2.90717
 30
        3.25000
 11
       11.57860
 21
        6.95960
 31
        3.25000
 12
       17.21675
 22
        4.90748
 32
        3.25000
 13
       13.62554
 23
       -4.95929
 33
        3.25000
999
OFFICE-1-3:OFFICE-1-3.CEILING
  0
3DFACE
  8
OFFICE-1-3
 62
 15
 10
        7.98739
 20
       -2.90717
 30
        6.50000
 11
       13.62554
 21
       -4.95929
 31
        6.50000
 12
       17.21675
 22
        4.90748
 32
        6.50000
 13
       11.57860
 23
        6.95960
 33
        6.50000
999
TOILET-1-0:TOILET-1-0.WALLINTERNAL.0.WEST
  0
3DFACE
  8
TOILET-1-0
 62
 43
 10
       13.37420
 20
       11.89299
 30
        3.25000
 11
       11.57860
 21
        6.95960
 31
        3.25000
 12
       11.57860
 22
        6.95960
 32
        6.50000
 13
       13.37420
 23
       11.89299
 33
        6.50000
999
TOILET-1-0:TOILET-1-0.WALLINTERNAL.1.EAST
  0
3DFACE
  8
TOILET-1-0
 62
 43
 10
       14.86752
 20
        5.76253
 30
        3.25000
 11
       16.66313
 21
       10.69592
 31
        3.25000
 12
       16.66313
 22
       10.69592
 32
        6.50000
 13
       14.86752
 23
        5.76253
 33
        6.50000
999
TOILET-1-0:iz-OFFICE-1-2.WALLINTERNAL.4.SOUTH
  0
3DFACE
  8
TOILET-1-0
 62
 43
 10
       13.37420
 20
       11.89299
 30
        6.50000
 11
       16.66313
 21
       10.69592
 31
        6.50000
 12
       16.66313
 22
       10.69592
 32
        3.25000
 13
       13.37420
 23
       11.89299
 33
        3.25000
999
TOILET-1-0:iz-OFFICE-1-3.WALLINTERNAL.1.NORTH
  0
3DFACE
  8
TOILET-1-0
 62
 43
 10
       14.86752
 20
        5.76253
 30
        6.50000
 11
       11.57860
 21
        6.95960
 31
        6.50000
 12
       11.57860
 22
        6.95960
 32
        3.25000
 13
       14.86752
 23
        5.76253
 33
        3.25000
999
TOILET-1-0:TOILET-1-0.FLOORINTERNAL
  0
3DFACE
  8
TOILET-1-0
 62
  8
 10
       11.57860
 20
        6.95960
 30
        3.25000
 11
       13.37420
 21
       11.89299
 31
        3.25000
 12
       16.66313
 22
       10.69592
 32
        3.25000
 13
       14.86752
 23
        5.76253
 33
        3.25000
999
TOILET-1-0:TOILET-1-0.CEILING
  0
3DFACE
  8
TOILET-1-0
 62
 15
 10
       11.57860
 20
        6.95960
 30
        6.50000
 11
       14.86752
 21
        5.76253
 31
        6.50000
 12
       16.66313
 22
       10.69592
 32
        6.50000
 13
       13.37420
 23
       11.89299
 33
        6.50000
999
STAIRS-1-0:STAIRS-1-0.0.WEST.WALLEXTERNAL
  0
3DFACE
  8
STAIRS-1-0
 62
 43
 10
        5.38682
 20
       14.80016
 30
        3.25000
 11
        3.59121
 21
        9.86677
 31
        3.25000
 12
        3.59121
 22
        9.86677
 32
        6.50000
 13
        5.38682
 23
       14.80016
 33
        6.50000
999
STAIRS-1-0:STAIRS-1-0.0.WEST.WALLEXTERNAL.0.WINDOW
  0
3DFACE
  8
STAIRS-1-0
 62
143
 10
        5.18161
 20
       14.23634
 30
        3.85000
 11
        4.83959
 21
       13.29665
 31
        3.85000
 12
        4.83959
 22
       13.29665
 32
        5.65000
 13
        5.18161
 23
       14.23634
 33
        5.65000
999
STAIRS-1-0:STAIRS-1-0.0.EAST.WALLINTERNAL
  0
3DFACE
  8
STAIRS-1-0
 62
 43
 10
        9.22937
 20
        7.81465
 30
        3.25000
 11
       11.02497
 21
       12.74804
 31
        3.25000
 12
       11.02497
 22
       12.74804
 32
        6.50000
 13
        9.22937
 23
        7.81465
 33
        6.50000
999
STAIRS-1-0:iz-OFFICE-1-0.3.NORTH.INTERNALWALL
  0
3DFACE
  8
STAIRS-1-0
 62
 43
 10
        9.22937
 20
        7.81465
 30
        6.50000
 11
        3.59121
 21
        9.86677
 31
        6.50000
 12
        3.59121
 22
        9.86677
 32
        3.25000
 13
        9.22937
 23
        7.81465
 33
        3.25000
999
STAIRS-1-0:iz-OFFICE-1-1.WALLINTERNAL.1.SOUTH
  0
3DFACE
  8
STAIRS-1-0
 62
 43
 10
        5.38682
 20
       14.80016
 30
        6.50000
 11
       11.02497
 21
       12.74804
 31
        6.50000
 12
       11.02497
 22
       12.74804
 32
        3.25000
 13
        5.38682
 23
       14.80016
 33
        3.25000
999
STAIRS-1-0:STAIRS-1-0.FLOORINTERNAL
  0
3DFACE
  8
STAIRS-1-0
 62
  8
 10
        3.59121
 20
        9.86677
 30
        3.25000
 11
        5.38682
 21
       14.80016
 31
        3.25000
 12
       11.02497
 22
       12.74804
 32
        3.25000
 13
        9.22937
 23
        7.81465
 33
        3.25000
999
STAIRS-1-0:STAIRS-1-0.CEILING
  0
3DFACE
  8
STAIRS-1-0
 62
 15
 10
        3.59121
 20
        9.86677
 30
        6.50000
 11
        9.22937
 21
        7.81465
 31
        6.50000
 12
       11.02497
 22
       12.74804
 32
        6.50000
 13
        5.38682
 23
       14.80016
 33
        6.50000
999
SERVICE-1-0:SERVICE-1-0.0.EAST.WALLEXTERNAL
  0
3DFACE
  8
SERVICE-1-0
 62
 43
 10
       17.21675
 20
        4.90748
 30
        3.25000
 11
       19.01236
 21
        9.84087
 31
        3.25000
 12
       19.01236
 22
        9.84087
 32
        6.50000
 13
       17.21675
 23
        4.90748
 33
        6.50000
999
SERVICE-1-0:SERVICE-1-0.0.EAST.WALLEXTERNAL.0.WINDOW
  0
3DFACE
  8
SERVICE-1-0
 62
143
 10
       17.57588
 20
        5.89416
 30
        5.05000
 11
       17.91790
 21
        6.83385
 31
        5.05000
 12
       17.91790
 22
        6.83385
 32
        5.65000
 13
       17.57588
 23
        5.89416
 33
        5.65000
999
SERVICE-1-0:SERVICE-1-0.0.EAST.WALLEXTERNAL.1.WINDOW
  0
3DFACE
  8
SERVICE-1-0
 62
143
 10
       18.46513
 20
        8.33736
 30
        5.05000
 11
       18.80715
 21
        9.27705
 31
        5.05000
 12
       18.80715
 22
        9.27705
 32
        5.65000
 13
       18.46513
 23
        8.33736
 33
        5.65000
999
SERVICE-1-0:iz-OFFICE-1-2.WALLINTERNAL.3.SOUTH
  0
3DFACE
  8
SERVICE-1-0
 62
 43
 10
       16.66313
 20
       10.69592
 30
        6.50000
 11
       19.01236
 21
        9.84087
 31
        6.50000
 12
       19.01236
 22
        9.84087
 32
        3.25000
 13
       16.66313
 23
       10.69592
 33
        3.25000
999
SERVICE-1-0:iz-OFFICE-1-3.WALLINTERNAL.2.NORTH
  0
3DFACE
  8
SERVICE-1-0
 62
 43
 10
       17.21675
 20
        4.90748
 30
        6.50000
 11
       14.86752
 21
        5.76253
 31
        6.50000
 12
       14.86752
 22
        5.76253
 32
        3.25000
 13
       17.21675
 23
        4.90748
 33
        3.25000
999
SERVICE-1-0:iz-TOILET-1-0.WALLINTERNAL.1.EAST
  0
3DFACE
  8
SERVICE-1-0
 62
 43
 10
       14.86752
 20
        5.76253
 30
        6.50000
 11
       16.66313
 21
       10.69592
 31
        6.50000
 12
       16.66313
 22
       10.69592
 32
        3.25000
 13
       14.86752
 23
        5.76253
 33
        3.25000
999
SERVICE-1-0:SERVICE-1-0.FLOORINTERNAL
  0
3DFACE
  8
SERVICE-1-0
 62
  8
 10
       14.86752
 20
        5.76253
 30
        3.25000
 11
       16.66313
 21
       10.69592
 31
        3.25000
 12
       19.01236
 22
        9.84087
 32
        3.25000
 13
       17.21675
 23
        4.90748
 33
        3.25000
999
SERVICE-1-0:SERVICE-1-0.CEILING
  0
3DFACE
  8
SERVICE-1-0
 62
 15
 10
       14.86752
 20
        5.76253
 30
        6.50000
 11
       17.21675
 21
        4.90748
 31
        6.50000
 12
       19.01236
 22
        9.84087
 32
        6.50000
 13
       16.66313
 23
       10.69592
 33
        6.50000
999
CORRIDOR-1-0:CORRIDOR-1-0.0.NORTH.WALLEXTERNAL
  0
3DFACE
  8
CORRIDOR-1-0
 62
 43
 10
       17.11933
 20
       22.18262
 30
        3.25000
 11
       14.77009
 21
       23.03767
 31
        3.25000
 12
       14.77009
 22
       23.03767
 32
        6.50000
 13
       17.11933
 23
       22.18262
 33
        6.50000
999
CORRIDOR-1-0:CORRIDOR-1-0.0.NORTH.WALLEXTERNAL.0.WINDOW
  0
3DFACE
  8
CORRIDOR-1-0
 62
143
 10
       16.41456
 20
       22.43914
 30
        3.85000
 11
       15.47486
 21
       22.78116
 31
        3.85000
 12
       15.47486
 22
       22.78116
 32
        5.65000
 13
       16.41456
 23
       22.43914
 33
        5.65000
999
CORRIDOR-1-0:CORRIDOR-1-0.1.SOUTH.WALLEXTERNAL
  0
3DFACE
  8
CORRIDOR-1-0
 62
 43
 10
        5.63816
 20
       -2.05212
 30
        3.25000
 11
        7.98739
 21
       -2.90717
 31
        3.25000
 12
        7.98739
 22
       -2.90717
 32
        6.50000
 13
        5.63816
 23
       -2.05212
 33
        6.50000
999
CORRIDOR-1-0:CORRIDOR-1-0.1.SOUTH.WALLEXTERNAL.0.WINDOW
  0
3DFACE
  8
CORRIDOR-1-0
 62
143
 10
        6.34293
 20
       -2.30864
 30
        3.85000
 11
        7.28262
 21
       -2.65066
 31
        3.85000
 12
        7.28262
 22
       -2.65066
 32
        5.65000
 13
        6.34293
 23
       -2.30864
 33
        5.65000
999
CORRIDOR-1-0:iz-OFFICE-1-0.2.EAST.INTERNALWALL
  0
3DFACE
  8
CORRIDOR-1-0
 62
 43
 10
        5.63816
 20
       -2.05212
 30
        6.50000
 11
        9.22937
 21
        7.81465
 31
        6.50000
 12
        9.22937
 22
        7.81465
 32
        3.25000
 13
        5.63816
 23
       -2.05212
 33
        3.25000
999
CORRIDOR-1-0:iz-OFFICE-1-1.WALLINTERNAL.2.EAST
  0
3DFACE
  8
CORRIDOR-1-0
 62
 43
 10
       11.02497
 20
       12.74804
 30
        6.50000
 11
       14.77009
 21
       23.03767
 31
        6.50000
 12
       14.77009
 22
       23.03767
 32
        3.25000
 13
       11.02497
 23
       12.74804
 33
        3.25000
999
CORRIDOR-1-0:iz-OFFICE-1-2.WALLINTERNAL.0.WEST
  0
3DFACE
  8
CORRIDOR-1-0
 62
 43
 10
       17.11933
 20
       22.18262
 30
        6.50000
 11
       13.37420
 21
       11.89299
 31
        6.50000
 12
       13.37420
 22
       11.89299
 32
        3.25000
 13
       17.11933
 23
       22.18262
 33
        3.25000
999
CORRIDOR-1-0:iz-OFFICE-1-3.WALLINTERNAL.0.WEST
  0
3DFACE
  8
CORRIDOR-1-0
 62
 43
 10
       11.57860
 20
        6.95960
 30
        6.50000
 11
        7.98739
 21
       -2.90717
 31
        6.50000
 12
        7.98739
 22
       -2.90717
 32
        3.25000
 13
       11.57860
 23
        6.95960
 33
        3.25000
999
CORRIDOR-1-0:iz-TOILET-1-0.WALLINTERNAL.0.WEST
  0
3DFACE
  8
CORRIDOR-1-0
 62
 43
 10
       13.37420
 20
       11.89299
 30
        6.50000
 11
       11.57860
 21
        6.95960
 31
        6.50000
 12
       11.57860
 22
        6.95960
 32
        3.25000
 13
       13.37420
 23
       11.89299
 33
        3.25000
999
CORRIDOR-1-0:iz-STAIRS-1-0.0.EAST.WALLINTERNAL
  0
3DFACE
  8
CORRIDOR-1-0
 62
 43
 10
        9.22937
 20
        7.81465
 30
        6.50000
 11
       11.02497
 21
       12.74804
 31
        6.50000
 12
       11.02497
 22
       12.74804
 32
        3.25000
 13
        9.22937
 23
        7.81465
 33
        3.25000
999
CORRIDOR-1-0:CORRIDOR-1-0.FLOORINTERNAL
  0
3DFACE
  8
CORRIDOR-1-0
 62
  8
 10
        5.63816
 20
       -2.05212
 30
        3.25000
 11
       14.77009
 21
       23.03767
 31
        3.25000
 12
       17.11933
 22
       22.18262
 32
        3.25000
 13
        7.98739
 23
       -2.90717
 33
        3.25000
999
CORRIDOR-1-0:CORRIDOR-1-0.CEILING
  0
3DFACE
  8
CORRIDOR-1-0
 62
 15
 10
        5.63816
 20
       -2.05212
 30
        6.50000
 11
        7.98739
 21
       -2.90717
 31
        6.50000
 12
       17.11933
 22
       22.18262
 32
        6.50000
 13
       14.77009
 23
       23.03767
 33
        6.50000
999
OFFICE-2-0:OFFICE-2-0.0.WEST.WALLEXTERNAL
  0
3DFACE
  8
OFFICE-2-0
 62
 43
 10
        3.59121
 20
        9.86677
 30
        6.50000
 11
        0.00000
 21
        0.00000
 31
        6.50000
 12
        0.00000
 22
        0.00000
 32
        9.75000
 13
        3.59121
 23
        9.86677
 33
        9.75000
999
OFFICE-2-0:OFFICE-2-0.0.WEST.WALLEXTERNAL.0.WINDOW
  0
3DFACE
  8
OFFICE-2-0
 62
143
 10
        3.40310
 20
        9.34994
 30
        7.10000
 11
        3.06108
 21
        8.41025
 31
        7.10000
 12
        3.06108
 22
        8.41025
 32
        8.90000
 13
        3.40310
 23
        9.34994
 33
        8.90000
999
OFFICE-2-0:OFFICE-2-0.0.WEST.WALLEXTERNAL.1.WINDOW
  0
3DFACE
  8
OFFICE-2-0
 62
143
 10
        2.51385
 20
        6.90674
 30
        7.10000
 11
        2.17183
 21
        5.96705
 31
        7.10000
 12
        2.17183
 22
        5.96705
 32
        8.90000
 13
        2.51385
 23
        6.90674
 33
        8.90000
999
OFFICE-2-0:OFFICE-2-0.0.WEST.WALLEXTERNAL.2.WINDOW
  0
3DFACE
  8
OFFICE-2-0
 62
143
 10
        1.62460
 20
        4.46354
 30
        7.10000
 11
        1.28258
 21
        3.52385
 31
        7.10000
 12
        1.28258
 22
        3.52385
 32
        8.90000
 13
        1.62460
 23
        4.46354
 33
        8.90000
999
OFFICE-2-0:OFFICE-2-0.0.WEST.WALLEXTERNAL.3.WINDOW
  0
3DFACE
  8
OFFICE-2-0
 62
143
 10
        0.73534
 20
        2.02034
 30
        7.10000
 11
        0.39332
 21
        1.08065
 31
        7.10000
 12
        0.39332
 22
        1.08065
 32
        8.90000
 13
        0.73534
 23
        2.02034
 33
        8.90000
999
OFFICE-2-0:OFFICE-2-0.1.SOUTH.WALLEXTERNAL
  0
3DFACE
  8
OFFICE-2-0
 62
 43
 10
        0.00000
 20
        0.00000
 30
        6.50000
 11
        5.63816
 21
       -2.05212
 31
        6.50000
 12
        5.63816
 22
       -2.05212
 32
        9.75000
 13
        0.00000
 23
        0.00000
 33
        9.75000
999
OFFICE-2-0:OFFICE-2-0.1.SOUTH.WALLEXTERNAL.0.WINDOW
  0
3DFACE
  8
OFFICE-2-0
 62
143
 10
        1.45652
 20
       -0.53013
 30
        7.10000
 11
        2.39622
 21
       -0.87215
 31
        7.10000
 12
        2.39622
 22
       -0.87215
 32
        8.90000
 13
        1.45652
 23
       -0.53013
 33
        8.90000
999
OFFICE-2-0:OFFICE-2-0.1.SOUTH.WALLEXTERNAL.1.WINDOW
  0
3DFACE
  8
OFFICE-2-0
 62
143
 10
        3.89972
 20
       -1.41938
 30
        7.10000
 11
        4.83942
 21
       -1.76140
 31
        7.10000
 12
        4.83942
 22
       -1.76140
 32
        8.90000
 13
        3.89972
 23
       -1.41938
 33
        8.90000
999
OFFICE-2-0:OFFICE-2-0.2.EAST.WALLINTERNAL
  0
3DFACE
  8
OFFICE-2-0
 62
 43
 10
        5.63816
 20
       -2.05212
 30
        6.50000
 11
        9.22937
 21
        7.81465
 31
        6.50000
 12
        9.22937
 22
        7.81465
 32
        9.75000
 13
        5.63816
 23
       -2.05212
 33
        9.75000
999
OFFICE-2-0:OFFICE-2-0.3.NORTH.WALLINTERNAL
  0
3DFACE
  8
OFFICE-2-0
 62
 43
 10
        9.22937
 20
        7.81465
 30
        6.50000
 11
        3.59121
 21
        9.86677
 31
        6.50000
 12
        3.59121
 22
        9.86677
 32
        9.75000
 13
        9.22937
 23
        7.81465
 33
        9.75000
999
OFFICE-2-0:OFFICE-2-0.0.FLOORINTERNAL
  0
3DFACE
  8
OFFICE-2-0
 62
  8
 10
        0.00000
 20
        0.00000
 30
        6.50000
 11
        3.59121
 21
        9.86677
 31
        6.50000
 12
        9.22937
 22
        7.81465
 32
        6.50000
 13
        5.63816
 23
       -2.05212
 33
        6.50000
999
OFFICE-2-0:OFFICE-2-0.1.ROOF
  0
3DFACE
  8
OFFICE-2-0
 62
 15
 10
        0.00000
 20
        0.00000
 30
        9.75000
 11
        5.63816
 21
       -2.05212
 31
        9.75000
 12
        9.22937
 22
        7.81465
 32
        9.75000
 13
        3.59121
 23
        9.86677
 33
        9.75000
999
OFFICE-2-1:OFFICE-2-1.0.WEST.WALLEXTERNAL
  0
3DFACE
  8
OFFICE-2-1
 62
 43
 10
        7.98617
 20
       21.94182
 30
        6.50000
 11
        5.38682
 21
       14.80016
 31
        6.50000
 12
        5.38682
 22
       14.80016
 32
        9.75000
 13
        7.98617
 23
       21.94182
 33
        9.75000
999
OFFICE-2-1:OFFICE-2-1.0.WEST.WALLEXTERNAL.1.WINDOW
  0
3DFACE
  8
OFFICE-2-1
 62
143
 10
        7.84936
 20
       21.56595
 30
        7.10000
 11
        7.50734
 21
       20.62625
 31
        7.10000
 12
        7.50734
 22
       20.62625
 32
        8.90000
 13
        7.84936
 23
       21.56595
 33
        8.90000
999
OFFICE-2-1:OFFICE-2-1.0.WEST.WALLEXTERNAL.2.WINDOW
  0
3DFACE
  8
OFFICE-2-1
 62
143
 10
        6.96011
 20
       19.12274
 30
        7.10000
 11
        6.61809
 21
       18.18305
 31
        7.10000
 12
        6.61809
 22
       18.18305
 32
        8.90000
 13
        6.96011
 23
       19.12274
 33
        8.90000
999
OFFICE-2-1:OFFICE-2-1.0.WEST.WALLEXTERNAL.3.WINDOW
  0
3DFACE
  8
OFFICE-2-1
 62
143
 10
        6.07086
 20
       16.67954
 30
        7.10000
 11
        5.72884
 21
       15.73985
 31
        7.10000
 12
        5.72884
 22
       15.73985
 32
        8.90000
 13
        6.07086
 23
       16.67954
 33
        8.90000
999
OFFICE-2-1:OFFICE-2-1.WALLINTERNAL.3.NORTH
  0
3DFACE
  8
OFFICE-2-1
 62
 43
 10
       13.62433
 20
       19.88970
 30
        6.50000
 11
        7.98617
 21
       21.94182
 31
        6.50000
 12
        7.98617
 22
       21.94182
 32
        9.75000
 13
       13.62433
 23
       19.88970
 33
        9.75000
999
OFFICE-2-1:OFFICE-2-1.WALLINTERNAL.1.SOUTH
  0
3DFACE
  8
OFFICE-2-1
 62
 43
 10
        5.38682
 20
       14.80016
 30
        6.50000
 11
       11.02497
 21
       12.74804
 31
        6.50000
 12
       11.02497
 22
       12.74804
 32
        9.75000
 13
        5.38682
 23
       14.80016
 33
        9.75000
999
OFFICE-2-1:OFFICE-2-1.WALLINTERNAL.2.EAST
  0
3DFACE
  8
OFFICE-2-1
 62
 43
 10
       11.02497
 20
       12.74804
 30
        6.50000
 11
       13.62433
 21
       19.88970
 31
        6.50000
 12
       13.62433
 22
       19.88970
 32
        9.75000
 13
       11.02497
 23
       12.74804
 33
        9.75000
999
OFFICE-2-1:OFFICE-2-1.FLOORINTERNAL
  0
3DFACE
  8
OFFICE-2-1
 62
  8
 10
        5.38682
 20
       14.80016
 30
        6.50000
 11
        7.98617
 21
       21.94182
 31
        6.50000
 12
       13.62433
 22
       19.88970
 32
        6.50000
 13
       11.02497
 23
       12.74804
 33
        6.50000
999
OFFICE-2-1:OFFICE-2-1.ROOF
  0
3DFACE
  8
OFFICE-2-1
 62
 15
 10
        5.38682
 20
       14.80016
 30
        9.75000
 11
       11.02497
 21
       12.74804
 31
        9.75000
 12
       13.62433
 22
       19.88970
 32
        9.75000
 13
        7.98617
 23
       21.94182
 33
        9.75000
999
OFFICE-2-4:OFFICE-2-4.0.WEST.WALLEXTERNAL
  0
3DFACE
  8
OFFICE-2-4
 62
 43
 10
        9.13194
 20
       25.08979
 30
        6.50000
 11
        7.98617
 21
       21.94182
 31
        6.50000
 12
        7.98617
 22
       21.94182
 32
        9.75000
 13
        9.13194
 23
       25.08979
 33
        9.75000
999
OFFICE-2-4:OFFICE-2-4.0.WEST.WALLEXTERNAL.0.WINDOW
  0
3DFACE
  8
OFFICE-2-4
 62
143
 10
        8.73861
 20
       24.00915
 30
        7.10000
 11
        8.39659
 21
       23.06945
 31
        7.10000
 12
        8.39659
 22
       23.06945
 32
        8.90000
 13
        8.73861
 23
       24.00915
 33
        8.90000
999
OFFICE-2-4:OFFICE-2-4.WALLEXTERNAL.3.NORTH
  0
3DFACE
  8
OFFICE-2-4
 62
 43
 10
       22.75748
 20
       20.13050
 30
        6.50000
 11
        9.13194
 21
       25.08979
 31
        6.50000
 12
        9.13194
 22
       25.08979
 32
        9.75000
 13
       22.75748
 23
       20.13050
 33
        9.75000
999
OFFICE-2-4:OFFICE-2-4.WALLEXTERNAL.3.NORTH.0.WINDOW
  0
3DFACE
  8
OFFICE-2-4
 62
143
 10
       13.97135
 20
       23.32839
 30
        7.10000
 11
       13.03166
 21
       23.67041
 31
        7.10000
 12
       13.03166
 22
       23.67041
 32
        8.90000
 13
       13.97135
 23
       23.32839
 33
        8.90000
999
OFFICE-2-4:OFFICE-2-4.WALLEXTERNAL.3.NORTH.1.WINDOW
  0
3DFACE
  8
OFFICE-2-4
 62
143
 10
       11.52815
 20
       24.21764
 30
        7.10000
 11
       10.58846
 21
       24.55966
 31
        7.10000
 12
       10.58846
 22
       24.55966
 32
        8.90000
 13
       11.52815
 23
       24.21764
 33
        8.90000
999
OFFICE-2-4:OFFICE-2-4.WALLEXTERNAL.3.NORTH.2.WINDOW
  0
3DFACE
  8
OFFICE-2-4
 62
143
 10
       21.30096
 20
       20.66063
 30
        7.10000
 11
       20.36126
 21
       21.00265
 31
        7.10000
 12
       20.36126
 22
       21.00265
 32
        8.90000
 13
       21.30096
 23
       20.66063
 33
        8.90000
999
OFFICE-2-4:OFFICE-2-4.WALLEXTERNAL.3.NORTH.3.WINDOW
  0
3DFACE
  8
OFFICE-2-4
 62
143
 10
       18.85776
 20
       21.54988
 30
        7.10000
 11
       17.91806
 21
       21.89190
 31
        7.10000
 12
       17.91806
 22
       21.89190
 32
        8.90000
 13
       18.85776
 23
       21.54988
 33
        8.90000
999
OFFICE-2-4:OFFICE-2-4.WALLEXTERNAL.2.EAST
  0
3DFACE
  8
OFFICE-2-4
 62
 43
 10
       21.61171
 20
       16.98253
 30
        6.50000
 11
       22.75748
 21
       20.13050
 31
        6.50000
 12
       22.75748
 22
       20.13050
 32
        9.75000
 13
       21.61171
 23
       16.98253
 33
        9.75000
999
OFFICE-2-4:OFFICE-2-4.WALLEXTERNAL.2.EAST.0.WINDOW
  0
3DFACE
  8
OFFICE-2-4
 62
143
 10
       22.02214
 20
       18.11016
 30
        7.10000
 11
       22.36416
 21
       19.04985
 31
        7.10000
 12
       22.36416
 22
       19.04985
 32
        8.90000
 13
       22.02214
 23
       18.11016
 33
        8.90000
999
OFFICE-2-4:iz-OFFICE-2-1.WALLINTERNAL.3.NORTH
  0
3DFACE
  8
OFFICE-2-4
 62
 43
 10
       13.62433
 20
       19.88970
 30
        9.75000
 11
        7.98617
 21
       21.94182
 31
        9.75000
 12
        7.98617
 22
       21.94182
 32
        6.50000
 13
       13.62433
 23
       19.88970
 33
        6.50000
999
OFFICE-2-4:iz-OFFICE-2-2.WALLINTERNAL.1.NORTH
  0
3DFACE
  8
OFFICE-2-4
 62
 43
 10
       21.61171
 20
       16.98253
 30
        9.75000
 11
       15.97356
 21
       19.03465
 31
        9.75000
 12
       15.97356
 22
       19.03465
 32
        6.50000
 13
       21.61171
 23
       16.98253
 33
        6.50000
999
OFFICE-2-4:iz-CORRIDOR-2-0.0.NORTH.WALLINTERNAL
  0
3DFACE
  8
OFFICE-2-4
 62
 43
 10
       15.97356
 20
       19.03465
 30
        9.75000
 11
       13.62433
 21
       19.88970
 31
        9.75000
 12
       13.62433
 22
       19.88970
 32
        6.50000
 13
       15.97356
 23
       19.03465
 33
        6.50000
999
OFFICE-2-4:OFFICE-2-4.FLOORINTERNAL
  0
3DFACE
  8
OFFICE-2-4
 62
  8
 10
        7.98617
 20
       21.94182
 30
        6.50000
 11
        9.13194
 21
       25.08979
 31
        6.50000
 12
       22.75748
 22
       20.13050
 32
        6.50000
 13
       21.61171
 23
       16.98253
 33
        6.50000
999
OFFICE-2-4:OFFICE-2-4.ROOF
  0
3DFACE
  8
OFFICE-2-4
 62
 15
 10
        7.98617
 20
       21.94182
 30
        9.75000
 11
       21.61171
 21
       16.98253
 31
        9.75000
 12
       22.75748
 22
       20.13050
 32
        9.75000
 13
        9.13194
 23
       25.08979
 33
        9.75000
999
OFFICE-2-2:OFFICE-2-2.WALLEXTERNAL.2.EAST
  0
3DFACE
  8
OFFICE-2-2
 62
 43
 10
       19.01236
 20
        9.84087
 30
        6.50000
 11
       21.61171
 21
       16.98253
 31
        6.50000
 12
       21.61171
 22
       16.98253
 32
        9.75000
 13
       19.01236
 23
        9.84087
 33
        9.75000
999
OFFICE-2-2:OFFICE-2-2.WALLEXTERNAL.2.EAST.1.WINDOW
  0
3DFACE
  8
OFFICE-2-2
 62
143
 10
       21.13289
 20
       15.66696
 30
        7.10000
 11
       21.47491
 21
       16.60665
 31
        7.10000
 12
       21.47491
 22
       16.60665
 32
        8.90000
 13
       21.13289
 23
       15.66696
 33
        8.90000
999
OFFICE-2-2:OFFICE-2-2.WALLEXTERNAL.2.EAST.2.WINDOW
  0
3DFACE
  8
OFFICE-2-2
 62
143
 10
       20.24363
 20
       13.22376
 30
        7.10000
 11
       20.58565
 21
       14.16345
 31
        7.10000
 12
       20.58565
 22
       14.16345
 32
        8.90000
 13
       20.24363
 23
       13.22376
 33
        8.90000
999
OFFICE-2-2:OFFICE-2-2.WALLEXTERNAL.2.EAST.3.WINDOW
  0
3DFACE
  8
OFFICE-2-2
 62
143
 10
       19.35438
 20
       10.78056
 30
        7.10000
 11
       19.69640
 21
       11.72025
 31
        7.10000
 12
       19.69640
 22
       11.72025
 32
        8.90000
 13
       19.35438
 23
       10.78056
 33
        8.90000
999
OFFICE-2-2:OFFICE-2-2.WALLINTERNAL.1.NORTH
  0
3DFACE
  8
OFFICE-2-2
 62
 43
 10
       21.61171
 20
       16.98253
 30
        6.50000
 11
       15.97356
 21
       19.03465
 31
        6.50000
 12
       15.97356
 22
       19.03465
 32
        9.75000
 13
       21.61171
 23
       16.98253
 33
        9.75000
999
OFFICE-2-2:OFFICE-2-2.WALLINTERNAL.3.SOUTH
  0
3DFACE
  8
OFFICE-2-2
 62
 43
 10
       16.66313
 20
       10.69592
 30
        6.50000
 11
       19.01236
 21
        9.84087
 31
        6.50000
 12
       19.01236
 22
        9.84087
 32
        9.75000
 13
       16.66313
 23
       10.69592
 33
        9.75000
999
OFFICE-2-2:OFFICE-2-2.WALLINTERNAL.4.SOUTH
  0
3DFACE
  8
OFFICE-2-2
 62
 43
 10
       13.37420
 20
       11.89299
 30
        6.50000
 11
       16.66313
 21
       10.69592
 31
        6.50000
 12
       16.66313
 22
       10.69592
 32
        9.75000
 13
       13.37420
 23
       11.89299
 33
        9.75000
999
OFFICE-2-2:OFFICE-2-2.WALLINTERNAL.0.WEST
  0
3DFACE
  8
OFFICE-2-2
 62
 43
 10
       15.97356
 20
       19.03465
 30
        6.50000
 11
       13.37420
 21
       11.89299
 31
        6.50000
 12
       13.37420
 22
       11.89299
 32
        9.75000
 13
       15.97356
 23
       19.03465
 33
        9.75000
999
OFFICE-2-2:OFFICE-2-2.FLOORINTERNAL
  0
3DFACE
  8
OFFICE-2-2
 62
  8
 10
       13.37420
 20
       11.89299
 30
        6.50000
 11
       15.97356
 21
       19.03465
 31
        6.50000
 12
       21.61171
 22
       16.98253
 32
        6.50000
 13
       19.01236
 23
        9.84087
 33
        6.50000
999
OFFICE-2-2:OFFICE-2-2.ROOF
  0
3DFACE
  8
OFFICE-2-2
 62
 15
 10
       13.37420
 20
       11.89299
 30
        9.75000
 11
       19.01236
 21
        9.84087
 31
        9.75000
 12
       21.61171
 22
       16.98253
 32
        9.75000
 13
       15.97356
 23
       19.03465
 33
        9.75000
999
OFFICE-2-3:OFFICE-2-3.WALLEXTERNAL.3.EAST
  0
3DFACE
  8
OFFICE-2-3
 62
 43
 10
       13.62554
 20
       -4.95929
 30
        6.50000
 11
       17.21675
 21
        4.90748
 31
        6.50000
 12
       17.21675
 22
        4.90748
 32
        9.75000
 13
       13.62554
 23
       -4.95929
 33
        9.75000
999
OFFICE-2-3:OFFICE-2-3.WALLEXTERNAL.3.EAST.0.WINDOW
  0
3DFACE
  8
OFFICE-2-3
 62
143
 10
       16.68662
 20
        3.45096
 30
        7.10000
 11
       17.02864
 21
        4.39065
 31
        7.10000
 12
       17.02864
 22
        4.39065
 32
        8.90000
 13
       16.68662
 23
        3.45096
 33
        8.90000
999
OFFICE-2-3:OFFICE-2-3.WALLEXTERNAL.3.EAST.1.WINDOW
  0
3DFACE
  8
OFFICE-2-3
 62
143
 10
       15.79737
 20
        1.00776
 30
        7.10000
 11
       16.13939
 21
        1.94745
 31
        7.10000
 12
       16.13939
 22
        1.94745
 32
        8.90000
 13
       15.79737
 23
        1.00776
 33
        8.90000
999
OFFICE-2-3:OFFICE-2-3.WALLEXTERNAL.3.EAST.2.WINDOW
  0
3DFACE
  8
OFFICE-2-3
 62
143
 10
       14.90812
 20
       -1.43544
 30
        7.10000
 11
       15.25014
 21
       -0.49575
 31
        7.10000
 12
       15.25014
 22
       -0.49575
 32
        8.90000
 13
       14.90812
 23
       -1.43544
 33
        8.90000
999
OFFICE-2-3:OFFICE-2-3.WALLEXTERNAL.3.EAST.3.WINDOW
  0
3DFACE
  8
OFFICE-2-3
 62
143
 10
       14.01887
 20
       -3.87865
 30
        7.10000
 11
       14.36089
 21
       -2.93895
 31
        7.10000
 12
       14.36089
 22
       -2.93895
 32
        8.90000
 13
       14.01887
 23
       -3.87865
 33
        8.90000
999
OFFICE-2-3:OFFICE-2-3.WALLEXTERNAL.4.SOUTH
  0
3DFACE
  8
OFFICE-2-3
 62
 43
 10
        7.98739
 20
       -2.90717
 30
        6.50000
 11
       13.62554
 21
       -4.95929
 31
        6.50000
 12
       13.62554
 22
       -4.95929
 32
        9.75000
 13
        7.98739
 23
       -2.90717
 33
        9.75000
999
OFFICE-2-3:OFFICE-2-3.WALLEXTERNAL.4.SOUTH.0.WINDOW
  0
3DFACE
  8
OFFICE-2-3
 62
143
 10
       11.22933
 20
       -4.08714
 30
        7.10000
 11
       12.16902
 21
       -4.42916
 31
        7.10000
 12
       12.16902
 22
       -4.42916
 32
        8.90000
 13
       11.22933
 23
       -4.08714
 33
        8.90000
999
OFFICE-2-3:OFFICE-2-3.WALLEXTERNAL.4.SOUTH.1.WINDOW
  0
3DFACE
  8
OFFICE-2-3
 62
143
 10
        8.78613
 20
       -3.19789
 30
        7.10000
 11
        9.72582
 21
       -3.53991
 31
        7.10000
 12
        9.72582
 22
       -3.53991
 32
        8.90000
 13
        8.78613
 23
       -3.19789
 33
        8.90000
999
OFFICE-2-3:OFFICE-2-3.WALLINTERNAL.2.NORTH
  0
3DFACE
  8
OFFICE-2-3
 62
 43
 10
       17.21675
 20
        4.90748
 30
        6.50000
 11
       14.86752
 21
        5.76253
 31
        6.50000
 12
       14.86752
 22
        5.76253
 32
        9.75000
 13
       17.21675
 23
        4.90748
 33
        9.75000
999
OFFICE-2-3:OFFICE-2-3.WALLINTERNAL.1.NORTH
  0
3DFACE
  8
OFFICE-2-3
 62
 43
 10
       14.86752
 20
        5.76253
 30
        6.50000
 11
       11.57860
 21
        6.95960
 31
        6.50000
 12
       11.57860
 22
        6.95960
 32
        9.75000
 13
       14.86752
 23
        5.76253
 33
        9.75000
999
OFFICE-2-3:OFFICE-2-3.WALLINTERNAL.0.WEST
  0
3DFACE
  8
OFFICE-2-3
 62
 43
 10
       11.57860
 20
        6.95960
 30
        6.50000
 11
        7.98739
 21
       -2.90717
 31
        6.50000
 12
        7.98739
 22
       -2.90717
 32
        9.75000
 13
       11.57860
 23
        6.95960
 33
        9.75000
999
OFFICE-2-3:OFFICE-2-3.FLOORINTERNAL
  0
3DFACE
  8
OFFICE-2-3
 62
  8
 10
        7.98739
 20
       -2.90717
 30
        6.50000
 11
       11.57860
 21
        6.95960
 31
        6.50000
 12
       17.21675
 22
        4.90748
 32
        6.50000
 13
       13.62554
 23
       -4.95929
 33
        6.50000
999
OFFICE-2-3:OFFICE-2-3.ROOF
  0
3DFACE
  8
OFFICE-2-3
 62
 15
 10
        7.98739
 20
       -2.90717
 30
        9.75000
 11
       13.62554
 21
       -4.95929
 31
        9.75000
 12
       17.21675
 22
        4.90748
 32
        9.75000
 13
       11.57860
 23
        6.95960
 33
        9.75000
999
TOILET-2-0:TOILET-2-0.WALLINTERNAL.0.WEST
  0
3DFACE
  8
TOILET-2-0
 62
 43
 10
       13.37420
 20
       11.89299
 30
        6.50000
 11
       11.57860
 21
        6.95960
 31
        6.50000
 12
       11.57860
 22
        6.95960
 32
        9.75000
 13
       13.37420
 23
       11.89299
 33
        9.75000
999
TOILET-2-0:TOILET-2-0.WALLINTERNAL.1.EAST
  0
3DFACE
  8
TOILET-2-0
 62
 43
 10
       14.86752
 20
        5.76253
 30
        6.50000
 11
       16.66313
 21
       10.69592
 31
        6.50000
 12
       16.66313
 22
       10.69592
 32
        9.75000
 13
       14.86752
 23
        5.76253
 33
        9.75000
999
TOILET-2-0:iz-OFFICE-2-2.WALLINTERNAL.4.SOUTH
  0
3DFACE
  8
TOILET-2-0
 62
 43
 10
       13.37420
 20
       11.89299
 30
        9.75000
 11
       16.66313
 21
       10.69592
 31
        9.75000
 12
       16.66313
 22
       10.69592
 32
        6.50000
 13
       13.37420
 23
       11.89299
 33
        6.50000
999
TOILET-2-0:iz-OFFICE-2-3.WALLINTERNAL.1.NORTH
  0
3DFACE
  8
TOILET-2-0
 62
 43
 10
       14.86752
 20
        5.76253
 30
        9.75000
 11
       11.57860
 21
        6.95960
 31
        9.75000
 12
       11.57860
 22
        6.95960
 32
        6.50000
 13
       14.86752
 23
        5.76253
 33
        6.50000
999
TOILET-2-0:TOILET-2-0.FLOORINTERNAL
  0
3DFACE
  8
TOILET-2-0
 62
  8
 10
       11.57860
 20
        6.95960
 30
        6.50000
 11
       13.37420
 21
       11.89299
 31
        6.50000
 12
       16.66313
 22
       10.69592
 32
        6.50000
 13
       14.86752
 23
        5.76253
 33
        6.50000
999
TOILET-2-0:TOILET-2-0.ROOF
  0
3DFACE
  8
TOILET-2-0
 62
 15
 10
       11.57860
 20
        6.95960
 30
        9.75000
 11
       14.86752
 21
        5.76253
 31
        9.75000
 12
       16.66313
 22
       10.69592
 32
        9.75000
 13
       13.37420
 23
       11.89299
 33
        9.75000
999
STAIRS-2-0:STAIRS-2-0.0.WEST.WALLEXTERNAL
  0
3DFACE
  8
STAIRS-2-0
 62
 43
 10
        5.38682
 20
       14.80016
 30
        6.50000
 11
        3.59121
 21
        9.86677
 31
        6.50000
 12
        3.59121
 22
        9.86677
 32
        9.75000
 13
        5.38682
 23
       14.80016
 33
        9.75000
999
STAIRS-2-0:STAIRS-2-0.0.WEST.WALLEXTERNAL.0.WINDOW
  0
3DFACE
  8
STAIRS-2-0
 62
143
 10
        5.18161
 20
       14.23634
 30
        7.10000
 11
        4.83959
 21
       13.29665
 31
        7.10000
 12
        4.83959
 22
       13.29665
 32
        8.90000
 13
        5.18161
 23
       14.23634
 33
        8.90000
999
STAIRS-2-0:STAIRS-2-0.0.EAST.WALLINTERNAL
  0
3DFACE
  8
STAIRS-2-0
 62
 43
 10
        9.22937
 20
        7.81465
 30
        6.50000
 11
       11.02497
 21
       12.74804
 31
        6.50000
 12
       11.02497
 22
       12.74804
 32
        9.75000
 13
        9.22937
 23
        7.81465
 33
        9.75000
999
STAIRS-2-0:iz-OFFICE-2-0.3.NORTH.WALLINTERNAL
  0
3DFACE
  8
STAIRS-2-0
 62
 43
 10
        9.22937
 20
        7.81465
 30
        9.75000
 11
        3.59121
 21
        9.86677
 31
        9.75000
 12
        3.59121
 22
        9.86677
 32
        6.50000
 13
        9.22937
 23
        7.81465
 33
        6.50000
999
STAIRS-2-0:iz-OFFICE-2-1.WALLINTERNAL.1.SOUTH
  0
3DFACE
  8
STAIRS-2-0
 62
 43
 10
        5.38682
 20
       14.80016
 30
        9.75000
 11
       11.02497
 21
       12.74804
 31
        9.75000
 12
       11.02497
 22
       12.74804
 32
        6.50000
 13
        5.38682
 23
       14.80016
 33
        6.50000
999
STAIRS-2-0:STAIRS-2-0.FLOORINTERNAL
  0
3DFACE
  8
STAIRS-2-0
 62
  8
 10
        3.59121
 20
        9.86677
 30
        6.50000
 11
        5.38682
 21
       14.80016
 31
        6.50000
 12
       11.02497
 22
       12.74804
 32
        6.50000
 13
        9.22937
 23
        7.81465
 33
        6.50000
999
STAIRS-2-0:STAIRS-2-0.ROOF
  0
3DFACE
  8
STAIRS-2-0
 62
 15
 10
        3.59121
 20
        9.86677
 30
        9.75000
 11
        9.22937
 21
        7.81465
 31
        9.75000
 12
       11.02497
 22
       12.74804
 32
        9.75000
 13
        5.38682
 23
       14.80016
 33
        9.75000
999
TECHNIC-2-0:TECHNIC-2-0.0.EAST.WALLEXTERNAL
  0
3DFACE
  8
TECHNIC-2-0
 62
 43
 10
       17.21675
 20
        4.90748
 30
        6.50000
 11
       19.01236
 21
        9.84087
 31
        6.50000
 12
       19.01236
 22
        9.84087
 32
        9.75000
 13
       17.21675
 23
        4.90748
 33
        9.75000
999
TECHNIC-2-0:TECHNIC-2-0.0.EAST.WALLEXTERNAL.0.WINDOW
  0
3DFACE
  8
TECHNIC-2-0
 62
143
 10
       17.57588
 20
        5.89416
 30
        8.30000
 11
       17.91790
 21
        6.83385
 31
        8.30000
 12
       17.91790
 22
        6.83385
 32
        8.90000
 13
       17.57588
 23
        5.89416
 33
        8.90000
999
TECHNIC-2-0:TECHNIC-2-0.0.EAST.WALLEXTERNAL.1.WINDOW
  0
3DFACE
  8
TECHNIC-2-0
 62
143
 10
       18.46513
 20
        8.33736
 30
        8.30000
 11
       18.80715
 21
        9.27705
 31
        8.30000
 12
       18.80715
 22
        9.27705
 32
        8.90000
 13
       18.46513
 23
        8.33736
 33
        8.90000
999
TECHNIC-2-0:iz-OFFICE-2-2.WALLINTERNAL.3.SOUTH
  0
3DFACE
  8
TECHNIC-2-0
 62
 43
 10
       16.66313
 20
       10.69592
 30
        9.75000
 11
       19.01236
 21
        9.84087
 31
        9.75000
 12
       19.01236
 22
        9.84087
 32
        6.50000
 13
       16.66313
 23
       10.69592
 33
        6.50000
999
TECHNIC-2-0:iz-OFFICE-2-3.WALLINTERNAL.2.NORTH
  0
3DFACE
  8
TECHNIC-2-0
 62
 43
 10
       17.21675
 20
        4.90748
 30
        9.75000
 11
       14.86752
 21
        5.76253
 31
        9.75000
 12
       14.86752
 22
        5.76253
 32
        6.50000
 13
       17.21675
 23
        4.90748
 33
        6.50000
999
TECHNIC-2-0:iz-TOILET-2-0.WALLINTERNAL.1.EAST
  0
3DFACE
  8
TECHNIC-2-0
 62
 43
 10
       14.86752
 20
        5.76253
 30
        9.75000
 11
       16.66313
 21
       10.69592
 31
        9.75000
 12
       16.66313
 22
       10.69592
 32
        6.50000
 13
       14.86752
 23
        5.76253
 33
        6.50000
999
TECHNIC-2-0:TECHNIC-2-0.FLOORINTERNAL
  0
3DFACE
  8
TECHNIC-2-0
 62
  8
 10
       14.86752
 20
        5.76253
 30
        6.50000
 11
       16.66313
 21
       10.69592
 31
        6.50000
 12
       19.01236
 22
        9.84087
 32
        6.50000
 13
       17.21675
 23
        4.90748
 33
        6.50000
999
TECHNIC-2-0:TECHNIC-2-0.ROOF
  0
3DFACE
  8
TECHNIC-2-0
 62
 15
 10
       14.86752
 20
        5.76253
 30
        9.75000
 11
       17.21675
 21
        4.90748
 31
        9.75000
 12
       19.01236
 22
        9.84087
 32
        9.75000
 13
       16.66313
 23
       10.69592
 33
        9.75000
999
CORRIDOR-2-0:CORRIDOR-2-0.0.NORTH.WALLINTERNAL
  0
3DFACE
  8
CORRIDOR-2-0
 62
 43
 10
       15.97356
 20
       19.03465
 30
        6.50000
 11
       13.62433
 21
       19.88970
 31
        6.50000
 12
       13.62433
 22
       19.88970
 32
        9.75000
 13
       15.97356
 23
       19.03465
 33
        9.75000
999
CORRIDOR-2-0:CORRIDOR-2-0.1.SOUTH.WALLEXTERNAL
  0
3DFACE
  8
CORRIDOR-2-0
 62
 43
 10
        5.63816
 20
       -2.05212
 30
        6.50000
 11
        7.98739
 21
       -2.90717
 31
        6.50000
 12
        7.98739
 22
       -2.90717
 32
        9.75000
 13
        5.63816
 23
       -2.05212
 33
        9.75000
999
CORRIDOR-2-0:CORRIDOR-2-0.1.SOUTH.WALLEXTERNAL.0.WINDOW
  0
3DFACE
  8
CORRIDOR-2-0
 62
143
 10
        6.34293
 20
       -2.30864
 30
        7.10000
 11
        7.28262
 21
       -2.65066
 31
        7.10000
 12
        7.28262
 22
       -2.65066
 32
        8.90000
 13
        6.34293
 23
       -2.30864
 33
        8.90000
999
CORRIDOR-2-0:iz-OFFICE-2-0.2.EAST.WALLINTERNAL
  0
3DFACE
  8
CORRIDOR-2-0
 62
 43
 10
        5.63816
 20
       -2.05212
 30
        9.75000
 11
        9.22937
 21
        7.81465
 31
        9.75000
 12
        9.22937
 22
        7.81465
 32
        6.50000
 13
        5.63816
 23
       -2.05212
 33
        6.50000
999
CORRIDOR-2-0:iz-OFFICE-2-1.WALLINTERNAL.2.EAST
  0
3DFACE
  8
CORRIDOR-2-0
 62
 43
 10
       11.02497
 20
       12.74804
 30
        9.75000
 11
       13.62433
 21
       19.88970
 31
        9.75000
 12
       13.62433
 22
       19.88970
 32
        6.50000
 13
       11.02497
 23
       12.74804
 33
        6.50000
999
CORRIDOR-2-0:iz-OFFICE-2-2.WALLINTERNAL.0.WEST
  0
3DFACE
  8
CORRIDOR-2-0
 62
 43
 10
       15.97356
 20
       19.03465
 30
        9.75000
 11
       13.37420
 21
       11.89299
 31
        9.75000
 12
       13.37420
 22
       11.89299
 32
        6.50000
 13
       15.97356
 23
       19.03465
 33
        6.50000
999
CORRIDOR-2-0:iz-OFFICE-2-3.WALLINTERNAL.0.WEST
  0
3DFACE
  8
CORRIDOR-2-0
 62
 43
 10
       11.57860
 20
        6.95960
 30
        9.75000
 11
        7.98739
 21
       -2.90717
 31
        9.75000
 12
        7.98739
 22
       -2.90717
 32
        6.50000
 13
       11.57860
 23
        6.95960
 33
        6.50000
999
CORRIDOR-2-0:iz-TOILET-2-0.WALLINTERNAL.0.WEST
  0
3DFACE
  8
CORRIDOR-2-0
 62
 43
 10
       13.37420
 20
       11.89299
 30
        9.75000
 11
       11.57860
 21
        6.95960
 31
        9.75000
 12
       11.57860
 22
        6.95960
 32
        6.50000
 13
       13.37420
 23
       11.89299
 33
        6.50000
999
CORRIDOR-2-0:iz-STAIRS-2-0.0.EAST.WALLINTERNAL
  0
3DFACE
  8
CORRIDOR-2-0
 62
 43
 10
        9.22937
 20
        7.81465
 30
        9.75000
 11
       11.02497
 21
       12.74804
 31
        9.75000
 12
       11.02497
 22
       12.74804
 32
        6.50000
 13
        9.22937
 23
        7.81465
 33
        6.50000
999
CORRIDOR-2-0:CORRIDOR-2-0.FLOORINTERNAL
  0
3DFACE
  8
CORRIDOR-2-0
 62
  8
 10
        5.63816
 20
       -2.05212
 30
        6.50000
 11
       13.62433
 21
       19.88970
 31
        6.50000
 12
       15.97356
 22
       19.03465
 32
        6.50000
 13
        7.98739
 23
       -2.90717
 33
        6.50000
999
CORRIDOR-2-0:CORRIDOR-2-0.ROOF
  0
3DFACE
  8
CORRIDOR-2-0
 62
 15
 10
        5.63816
 20
       -2.05212
 30
        9.75000
 11
        7.98739
 21
       -2.90717
 31
        9.75000
 12
       15.97356
 22
       19.03465
 32
        9.75000
 13
       13.62433
 23
       19.88970
 33
        9.75000
  0
ENDSEC
  0
EOF
